version 3
run General-0-20241229-16:25:49-12016
attr configname General
attr datetime 20241229-16:25:49
attr datetimef 20241229-162549
attr experiment General
attr inifile omnetpp.ini
attr iterationvars ""
attr iterationvarsd ""
attr iterationvarsf ""
attr measurement ""
attr network NoMobility
attr processid 12016
attr repetition 0
attr replication #0
attr resultdir results
attr runnumber 0
attr seedset 0
config image-path ../../../inet4.5/images
config network NoMobility
config *.hcMaxPublish 3
config *.hcMaxSubscribe 3
config **.constraintAreaMinX 0m
config **.constraintAreaMinY 0m
config **.constraintAreaMinZ 0m
config **.constraintAreaMaxX 1800m
config **.constraintAreaMaxY 1000m
config **.constraintAreaMaxZ 0m
config **.dataLinkVisualizer.displayLinks true
config **.packetFlowVisualizer.displayRoutes true
config **.displayPacketDrops true
config **.wlan[*].typename AckingWirelessInterface
config **.wlan[*].bitrate 2Mbps
config **.wlan[*].mac.headerLength 23B
config **.wlan[*].radio.typename UnitDiskRadio
config **.wlan[*].radio.transmitter.headerLength 96b
config **.wlan[*].radio.transmitter.interferenceRange 0m
config **.wlan[*].radio.transmitter.detectionRange 0m
config **.wlan[*].radio.receiver.ignoreInterference true
config **.wlan[*].radio.transmitter.communicationRange 220m
config *.host0.numApps 1
config *.host0.app*.typename FadipSink
config *.host4.numApps 1
config *.host4.app*.typename FadipSourceApp
config *.host4.app*.delay 0.15
config *.host5.numApps 1
config *.host5.app*.typename FadipSourceApp
config *.host5.app*.delay 0.2
config *.host6.numApps 1
config *.host6.app*.typename FadipSourceApp
config *.host6.app*.delay 0.3
config *.host7.numApps 1
config *.host7.app*.typename FadipSourceApp
config *.host7.app*.delay 0.4
config **.topic "\"Test\""

par NoMobility.visualizer.sceneVisualizer typename "\"inet.visualizer.canvas.scene.SceneCanvasVisualizer\""
par NoMobility.visualizer.sceneVisualizer visualizationTargetModule "\"^.^\""
par NoMobility.visualizer.sceneVisualizer visualizationSubjectModule "\"^.^\""
par NoMobility.visualizer.sceneVisualizer tags "\"\""
par NoMobility.visualizer.sceneVisualizer physicalEnvironmentModule "\"physicalEnvironment\""
par NoMobility.visualizer.sceneVisualizer networkNodeVisualizerModule "\"^.networkNodeVisualizer\""
par NoMobility.visualizer.sceneVisualizer axisLength "nan m"
attr mutable ""
attr unit m
par NoMobility.visualizer.sceneVisualizer animationSpeed 0
par NoMobility.visualizer.sceneVisualizer sceneMinX "nan m"
attr unit m
par NoMobility.visualizer.sceneVisualizer sceneMinY "nan m"
attr unit m
par NoMobility.visualizer.sceneVisualizer sceneMinZ "nan m"
attr unit m
par NoMobility.visualizer.sceneVisualizer sceneMaxX "nan m"
attr unit m
par NoMobility.visualizer.sceneVisualizer sceneMaxY "nan m"
attr unit m
par NoMobility.visualizer.sceneVisualizer sceneMaxZ "nan m"
attr unit m
par NoMobility.visualizer.sceneVisualizer zIndex 0
par NoMobility.visualizer.sceneVisualizer viewAngle "\"x right y down z out\""
attr mutable ""
par NoMobility.visualizer.sceneVisualizer viewScale "\"1 1\""
attr mutable ""
par NoMobility.visualizer.sceneVisualizer viewTranslation "\"0 0\""
attr mutable ""
par NoMobility.visualizer.sceneVisualizer descriptionFigure "\"\""
par NoMobility.visualizer.physicalEnvironmentVisualizer typename "\"inet.visualizer.canvas.environment.PhysicalEnvironmentCanvasVisualizer\""
par NoMobility.visualizer.physicalEnvironmentVisualizer visualizationTargetModule "\"^.^\""
par NoMobility.visualizer.physicalEnvironmentVisualizer visualizationSubjectModule "\"^.^\""
par NoMobility.visualizer.physicalEnvironmentVisualizer tags "\"\""
par NoMobility.visualizer.physicalEnvironmentVisualizer physicalEnvironmentModule "\"physicalEnvironment\""
par NoMobility.visualizer.physicalEnvironmentVisualizer displayObjects true
par NoMobility.visualizer.physicalEnvironmentVisualizer zIndex 0
par NoMobility.visualizer.networkNodeVisualizer typename "\"inet.visualizer.canvas.scene.NetworkNodeCanvasVisualizer\""
par NoMobility.visualizer.networkNodeVisualizer visualizationTargetModule "\"^.^\""
par NoMobility.visualizer.networkNodeVisualizer visualizationSubjectModule "\"^.^\""
par NoMobility.visualizer.networkNodeVisualizer tags "\"\""
par NoMobility.visualizer.networkNodeVisualizer nodeFilter "\"*\""
attr mutable ""
par NoMobility.visualizer.networkNodeVisualizer annotationSpacing 4
par NoMobility.visualizer.networkNodeVisualizer placementPenalty 10
par NoMobility.visualizer.networkNodeVisualizer zIndex 0
par NoMobility.visualizer.networkConnectionVisualizer typename "\"inet.visualizer.canvas.scene.NetworkConnectionCanvasVisualizer\""
par NoMobility.visualizer.networkConnectionVisualizer visualizationTargetModule "\"^.^\""
par NoMobility.visualizer.networkConnectionVisualizer visualizationSubjectModule "\"^.^\""
par NoMobility.visualizer.networkConnectionVisualizer tags "\"\""
par NoMobility.visualizer.networkConnectionVisualizer displayNetworkConnections true
par NoMobility.visualizer.networkConnectionVisualizer nodeFilter "\"\""
attr mutable ""
par NoMobility.visualizer.networkConnectionVisualizer lineColor "\"black\""
par NoMobility.visualizer.networkConnectionVisualizer lineStyle "\"solid\""
par NoMobility.visualizer.networkConnectionVisualizer lineWidth 1
par NoMobility.visualizer.networkConnectionVisualizer zIndex 0
par NoMobility.visualizer.mobilityVisualizer typename "\"inet.visualizer.canvas.mobility.MobilityCanvasVisualizer\""
par NoMobility.visualizer.mobilityVisualizer visualizationTargetModule "\"^.^\""
par NoMobility.visualizer.mobilityVisualizer visualizationSubjectModule "\"^.^\""
par NoMobility.visualizer.mobilityVisualizer tags "\"\""
par NoMobility.visualizer.mobilityVisualizer networkNodeVisualizerModule "\"^.networkNodeVisualizer\""
par NoMobility.visualizer.mobilityVisualizer displayMobility true
par NoMobility.visualizer.mobilityVisualizer animationSpeed 0
par NoMobility.visualizer.mobilityVisualizer moduleFilter "\"**.mobility\""
attr mutable ""
par NoMobility.visualizer.mobilityVisualizer displayPositions false
par NoMobility.visualizer.mobilityVisualizer positionCircleRadius 4
par NoMobility.visualizer.mobilityVisualizer positionCircleLineWidth 1
par NoMobility.visualizer.mobilityVisualizer positionCircleLineColor "\"dark\""
par NoMobility.visualizer.mobilityVisualizer positionCircleFillColor "\"dark\""
par NoMobility.visualizer.mobilityVisualizer displayOrientations false
par NoMobility.visualizer.mobilityVisualizer orientationPieRadius 32
par NoMobility.visualizer.mobilityVisualizer orientationPieSize 0.2
par NoMobility.visualizer.mobilityVisualizer orientationPieOpacity 0.25
par NoMobility.visualizer.mobilityVisualizer orientationLineColor "\"black\""
par NoMobility.visualizer.mobilityVisualizer orientationLineStyle "\"solid\""
par NoMobility.visualizer.mobilityVisualizer orientationLineWidth 1
par NoMobility.visualizer.mobilityVisualizer orientationFillColor "\"blue\""
par NoMobility.visualizer.mobilityVisualizer displayVelocities false
par NoMobility.visualizer.mobilityVisualizer velocityArrowScale 1
par NoMobility.visualizer.mobilityVisualizer velocityLineColor "\"black\""
par NoMobility.visualizer.mobilityVisualizer velocityLineStyle "\"solid\""
par NoMobility.visualizer.mobilityVisualizer velocityLineWidth 1
par NoMobility.visualizer.mobilityVisualizer displayMovementTrails false
par NoMobility.visualizer.mobilityVisualizer movementTrailLineColor "\"dark\""
par NoMobility.visualizer.mobilityVisualizer movementTrailLineStyle "\"solid\""
par NoMobility.visualizer.mobilityVisualizer movementTrailLineWidth 1
par NoMobility.visualizer.mobilityVisualizer trailLength 100
par NoMobility.visualizer.mobilityVisualizer zIndex 0
par NoMobility.visualizer.statisticVisualizer typename "\"inet.visualizer.canvas.common.StatisticCanvasVisualizer\""
par NoMobility.visualizer.statisticVisualizer visualizationTargetModule "\"^.^\""
par NoMobility.visualizer.statisticVisualizer visualizationSubjectModule "\"^.^\""
par NoMobility.visualizer.statisticVisualizer tags "\"\""
par NoMobility.visualizer.statisticVisualizer networkNodeVisualizerModule "\"^.networkNodeVisualizer\""
par NoMobility.visualizer.statisticVisualizer displayStatistics true
par NoMobility.visualizer.statisticVisualizer signalName "\"\""
par NoMobility.visualizer.statisticVisualizer statisticName "\"\""
par NoMobility.visualizer.statisticVisualizer statisticUnit "\"\""
par NoMobility.visualizer.statisticVisualizer statisticExpression "\"\""
par NoMobility.visualizer.statisticVisualizer sourceFilter "\"**\""
attr mutable ""
par NoMobility.visualizer.statisticVisualizer format "\"%n: %v %u\""
attr mutable ""
par NoMobility.visualizer.statisticVisualizer unit "\"\""
par NoMobility.visualizer.statisticVisualizer font "\"<default>\""
par NoMobility.visualizer.statisticVisualizer textColor "\"black\""
par NoMobility.visualizer.statisticVisualizer backgroundColor "\"white\""
par NoMobility.visualizer.statisticVisualizer opacity 1
par NoMobility.visualizer.statisticVisualizer placementHint "\"top\""
par NoMobility.visualizer.statisticVisualizer placementPriority 0
par NoMobility.visualizer.statisticVisualizer zIndex 10
par NoMobility.visualizer.statisticVisualizer propertyName "\"\""
par NoMobility.visualizer.statisticVisualizer propertyIndex "\"\""
par NoMobility.visualizer.infoVisualizer typename "\"inet.visualizer.canvas.common.InfoCanvasVisualizer\""
par NoMobility.visualizer.infoVisualizer visualizationTargetModule "\"^.^\""
par NoMobility.visualizer.infoVisualizer visualizationSubjectModule "\"^.^\""
par NoMobility.visualizer.infoVisualizer tags "\"\""
par NoMobility.visualizer.infoVisualizer networkNodeVisualizerModule "\"^.networkNodeVisualizer\""
par NoMobility.visualizer.infoVisualizer displayInfos true
par NoMobility.visualizer.infoVisualizer modules "\"\""
attr mutable ""
par NoMobility.visualizer.infoVisualizer format "\"%t\""
attr mutable ""
par NoMobility.visualizer.infoVisualizer font "\"<default>\""
par NoMobility.visualizer.infoVisualizer textColor "\"black\""
par NoMobility.visualizer.infoVisualizer backgroundColor "\"white\""
par NoMobility.visualizer.infoVisualizer opacity 1
par NoMobility.visualizer.infoVisualizer placementHint "\"top\""
par NoMobility.visualizer.infoVisualizer placementPriority 0
par NoMobility.visualizer.infoVisualizer zIndex 10
par NoMobility.visualizer.energyStorageVisualizer typename "\"inet.visualizer.canvas.power.EnergyStorageCanvasVisualizer\""
par NoMobility.visualizer.energyStorageVisualizer visualizationTargetModule "\"^.^\""
par NoMobility.visualizer.energyStorageVisualizer visualizationSubjectModule "\"^.^\""
par NoMobility.visualizer.energyStorageVisualizer tags "\"\""
par NoMobility.visualizer.energyStorageVisualizer networkNodeVisualizerModule "\"^.networkNodeVisualizer\""
par NoMobility.visualizer.energyStorageVisualizer displayEnergyStorages false
par NoMobility.visualizer.energyStorageVisualizer energyStorageFilter "\"**\""
par NoMobility.visualizer.energyStorageVisualizer color "\"green\""
par NoMobility.visualizer.energyStorageVisualizer width 8
par NoMobility.visualizer.energyStorageVisualizer height 24
par NoMobility.visualizer.energyStorageVisualizer spacing 2
par NoMobility.visualizer.energyStorageVisualizer placementHint "\"right\""
par NoMobility.visualizer.energyStorageVisualizer placementPriority 0
par NoMobility.visualizer.energyStorageVisualizer zIndex 10
par NoMobility.visualizer.mediumVisualizer typename "\"inet.visualizer.canvas.physicallayer.MediumCanvasVisualizer\""
par NoMobility.visualizer.mediumVisualizer visualizationTargetModule "\"^.^\""
par NoMobility.visualizer.mediumVisualizer visualizationSubjectModule "\"^.^\""
par NoMobility.visualizer.mediumVisualizer tags "\"\""
par NoMobility.visualizer.mediumVisualizer mediumModule "\"radioMedium\""
par NoMobility.visualizer.mediumVisualizer networkNodeVisualizerModule "\"^.networkNodeVisualizer\""
par NoMobility.visualizer.mediumVisualizer nodeFilter "\"*\""
attr mutable ""
par NoMobility.visualizer.mediumVisualizer interfaceFilter "\"*\""
attr mutable ""
par NoMobility.visualizer.mediumVisualizer packetFilter "(omnetpp::cValueHolder)holder: \"*\""
attr mutable ""
par NoMobility.visualizer.mediumVisualizer displaySignals false
par NoMobility.visualizer.mediumVisualizer signalColor "\"dark\""
par NoMobility.visualizer.mediumVisualizer signalPropagationAnimationSpeed "nan "
attr mutable ""
par NoMobility.visualizer.mediumVisualizer signalPropagationAnimationTime 1s
attr unit s
par NoMobility.visualizer.mediumVisualizer signalPropagationAdditionalTime 0s
attr unit s
par NoMobility.visualizer.mediumVisualizer signalTransmissionAnimationSpeed "nan "
attr mutable ""
par NoMobility.visualizer.mediumVisualizer signalTransmissionAnimationTime 1s
attr unit s
par NoMobility.visualizer.mediumVisualizer signalAnimationSpeedChangeTimeMode "\"realTime\""
attr enum realTime,animationTime,simulationTime
par NoMobility.visualizer.mediumVisualizer signalAnimationSpeedChangeTime 1s
attr unit s
par NoMobility.visualizer.mediumVisualizer displaySignalDepartures false
par NoMobility.visualizer.mediumVisualizer signalDepartureImage "\"misc/signal_departure.png\""
par NoMobility.visualizer.mediumVisualizer signalDeparturePlacementHint "\"topCenter\""
par NoMobility.visualizer.mediumVisualizer signalDeparturePlacementPriority 1
par NoMobility.visualizer.mediumVisualizer displaySignalArrivals false
par NoMobility.visualizer.mediumVisualizer signalArrivalImage "\"misc/signal_arrival.png\""
par NoMobility.visualizer.mediumVisualizer signalArrivalPlacementHint "\"topCenter\""
par NoMobility.visualizer.mediumVisualizer signalArrivalPlacementPriority -1
par NoMobility.visualizer.mediumVisualizer displayCommunicationRanges false
par NoMobility.visualizer.mediumVisualizer communicationRangeLineColor "\"blue\""
par NoMobility.visualizer.mediumVisualizer communicationRangeLineStyle "\"solid\""
par NoMobility.visualizer.mediumVisualizer communicationRangeLineWidth 1
par NoMobility.visualizer.mediumVisualizer displayInterferenceRanges false
par NoMobility.visualizer.mediumVisualizer interferenceRangeLineColor "\"gray\""
par NoMobility.visualizer.mediumVisualizer interferenceRangeLineStyle "\"solid\""
par NoMobility.visualizer.mediumVisualizer interferenceRangeLineWidth 1
par NoMobility.visualizer.mediumVisualizer autoPowerAxis true
par NoMobility.visualizer.mediumVisualizer signalMinPower "inf dBmW"
attr unit dBmW
par NoMobility.visualizer.mediumVisualizer signalMaxPower 0dBmW
attr unit dBmW
par NoMobility.visualizer.mediumVisualizer signalMinPowerDensity "inf dBmWpMHz"
attr unit dBmWpMHz
par NoMobility.visualizer.mediumVisualizer signalMaxPowerDensity "-inf dBmWpMHz"
attr unit dBmWpMHz
par NoMobility.visualizer.mediumVisualizer autoTimeAxis true
par NoMobility.visualizer.mediumVisualizer signalMinTime 0s
attr unit s
par NoMobility.visualizer.mediumVisualizer signalMaxTime 0s
attr unit s
par NoMobility.visualizer.mediumVisualizer autoFrequencyAxis true
par NoMobility.visualizer.mediumVisualizer signalMinFrequency "inf Hz"
attr unit Hz
par NoMobility.visualizer.mediumVisualizer signalMaxFrequency "-inf Hz"
attr unit Hz
par NoMobility.visualizer.mediumVisualizer displayMainPowerDensityMap false
par NoMobility.visualizer.mediumVisualizer mainPowerDensityMapPixmapDensity 1
par NoMobility.visualizer.mediumVisualizer mainPowerDensityMapMinX 0
par NoMobility.visualizer.mediumVisualizer mainPowerDensityMapMaxX "nan "
par NoMobility.visualizer.mediumVisualizer mainPowerDensityMapMinY 0
par NoMobility.visualizer.mediumVisualizer mainPowerDensityMapMaxY "nan "
par NoMobility.visualizer.mediumVisualizer mainPowerDensityMapZ 0
par NoMobility.visualizer.mediumVisualizer mainPowerDensityMapFigureXTickCount 3
par NoMobility.visualizer.mediumVisualizer mainPowerDensityMapFigureYTickCount 3
par NoMobility.visualizer.mediumVisualizer displayPowerDensityMaps false
par NoMobility.visualizer.mediumVisualizer powerDensityMapMode "\"auto\""
attr enum total,signal,auto
par NoMobility.visualizer.mediumVisualizer powerDensityMapPixelMode "\"mean\""
attr enum sample,partition,mean
par NoMobility.visualizer.mediumVisualizer powerDensityMapApproximationSize 10
par NoMobility.visualizer.mediumVisualizer powerDensityMapCenterFrequency "nan Hz"
attr mutable ""
attr unit Hz
par NoMobility.visualizer.mediumVisualizer powerDensityMapBandwidth 0Hz
attr mutable ""
attr unit Hz
par NoMobility.visualizer.mediumVisualizer powerDensityMapFigureWidth 200
par NoMobility.visualizer.mediumVisualizer powerDensityMapFigureHeight 120
par NoMobility.visualizer.mediumVisualizer powerDensityMapPixmapWidth 200
par NoMobility.visualizer.mediumVisualizer powerDensityMapPixmapHeight 120
par NoMobility.visualizer.mediumVisualizer powerDensityMapZ 0
par NoMobility.visualizer.mediumVisualizer powerDensityMapFigureXTickCount 3
par NoMobility.visualizer.mediumVisualizer powerDensityMapFigureYTickCount 3
par NoMobility.visualizer.mediumVisualizer displaySpectrums false
par NoMobility.visualizer.mediumVisualizer spectrumMode "\"auto\""
attr enum total,signal,auto
par NoMobility.visualizer.mediumVisualizer spectrumFigureWidth 200
par NoMobility.visualizer.mediumVisualizer spectrumFigureHeight 120
par NoMobility.visualizer.mediumVisualizer spectrumFigureXTickCount 3
par NoMobility.visualizer.mediumVisualizer spectrumFigureYTickCount 5
par NoMobility.visualizer.mediumVisualizer spectrumFigureInterpolationSize 5
par NoMobility.visualizer.mediumVisualizer spectrumPlacementHint "\"bottomCenter\""
par NoMobility.visualizer.mediumVisualizer spectrumPlacementPriority -1
par NoMobility.visualizer.mediumVisualizer displaySpectrograms false
par NoMobility.visualizer.mediumVisualizer spectrogramMode "\"auto\""
attr enum total,signal,auto
par NoMobility.visualizer.mediumVisualizer spectrogramPixelMode "\"mean\""
attr enum sample,partition,mean
par NoMobility.visualizer.mediumVisualizer spectrogramFigureWidth 200
par NoMobility.visualizer.mediumVisualizer spectrogramFigureHeight 120
par NoMobility.visualizer.mediumVisualizer spectrogramPixmapWidth 200
par NoMobility.visualizer.mediumVisualizer spectrogramPixmapHeight 120
par NoMobility.visualizer.mediumVisualizer spectrogramFigureXTickCount 3
par NoMobility.visualizer.mediumVisualizer spectrogramFigureYTickCount 5
par NoMobility.visualizer.mediumVisualizer spectrogramPlacementHint "\"bottomCenter\""
par NoMobility.visualizer.mediumVisualizer spectrogramPlacementPriority -1
par NoMobility.visualizer.mediumVisualizer zIndex 0
par NoMobility.visualizer.mediumVisualizer signalShape "\"ring\""
attr enum ring,sphere
par NoMobility.visualizer.mediumVisualizer signalOpacity 0.5
par NoMobility.visualizer.mediumVisualizer signalRingCount 20
par NoMobility.visualizer.mediumVisualizer signalRingSize 50m
attr unit m
par NoMobility.visualizer.mediumVisualizer signalFadingDistance 50m
attr unit m
par NoMobility.visualizer.mediumVisualizer signalFadingFactor 1.2
par NoMobility.visualizer.mediumVisualizer signalWaveCount 20
par NoMobility.visualizer.mediumVisualizer signalWaveLength 50m
attr unit m
par NoMobility.visualizer.mediumVisualizer signalWaveWidth 10m
attr unit m
par NoMobility.visualizer.mediumVisualizer signalWaveFadingAnimationSpeedFactor 1
par NoMobility.visualizer.mediumVisualizer displayCommunicationHeat false
par NoMobility.visualizer.obstacleLossVisualizer typename "\"inet.visualizer.canvas.physicallayer.TracingObstacleLossCanvasVisualizer\""
par NoMobility.visualizer.obstacleLossVisualizer visualizationTargetModule "\"^.^\""
par NoMobility.visualizer.obstacleLossVisualizer visualizationSubjectModule "\"^.^\""
par NoMobility.visualizer.obstacleLossVisualizer tags "\"\""
par NoMobility.visualizer.obstacleLossVisualizer displayIntersections false
par NoMobility.visualizer.obstacleLossVisualizer intersectionLineColor "\"red\""
par NoMobility.visualizer.obstacleLossVisualizer intersectionLineStyle "\"solid\""
par NoMobility.visualizer.obstacleLossVisualizer intersectionLineWidth 1
par NoMobility.visualizer.obstacleLossVisualizer displayFaceNormalVectors false
par NoMobility.visualizer.obstacleLossVisualizer faceNormalLineColor "\"grey\""
par NoMobility.visualizer.obstacleLossVisualizer faceNormalLineStyle "\"solid\""
par NoMobility.visualizer.obstacleLossVisualizer faceNormalLineWidth 1
par NoMobility.visualizer.obstacleLossVisualizer fadeOutMode "\"realTime\""
attr enum realTime,animationTime,simulationTime
par NoMobility.visualizer.obstacleLossVisualizer fadeOutTime 1s
attr unit s
par NoMobility.visualizer.obstacleLossVisualizer fadeOutAnimationSpeed 0
par NoMobility.visualizer.obstacleLossVisualizer zIndex 0
par NoMobility.visualizer.packetDropVisualizer typename "\"inet.visualizer.canvas.common.PacketDropCanvasVisualizer\""
par NoMobility.visualizer.packetDropVisualizer visualizationTargetModule "\"^.^\""
par NoMobility.visualizer.packetDropVisualizer visualizationSubjectModule "\"^.^\""
par NoMobility.visualizer.packetDropVisualizer tags "\"\""
par NoMobility.visualizer.packetDropVisualizer displayPacketDrops true
par NoMobility.visualizer.packetDropVisualizer nodeFilter "\"*\""
attr mutable ""
par NoMobility.visualizer.packetDropVisualizer interfaceFilter "\"*\""
attr mutable ""
par NoMobility.visualizer.packetDropVisualizer packetFilter "(omnetpp::cValueHolder)holder: \"*\""
attr mutable ""
par NoMobility.visualizer.packetDropVisualizer detailsFilter "\"*\""
attr mutable ""
par NoMobility.visualizer.packetDropVisualizer icon "\"msg/packet_s\""
par NoMobility.visualizer.packetDropVisualizer iconTintAmount 1
par NoMobility.visualizer.packetDropVisualizer iconTintColor "\"dark\""
par NoMobility.visualizer.packetDropVisualizer labelFormat "\"%n\""
attr mutable ""
par NoMobility.visualizer.packetDropVisualizer labelFont "\"<default>\""
par NoMobility.visualizer.packetDropVisualizer labelColor "\"black\""
par NoMobility.visualizer.packetDropVisualizer fadeOutMode "\"realTime\""
attr enum realTime,animationTime,simulationTime
par NoMobility.visualizer.packetDropVisualizer fadeOutTime 1s
attr unit s
par NoMobility.visualizer.packetDropVisualizer fadeOutAnimationSpeed 0
par NoMobility.visualizer.packetDropVisualizer zIndex 10
par NoMobility.visualizer.packetDropVisualizer dx 32
par NoMobility.visualizer.packetDropVisualizer dy 64
par NoMobility.visualizer.packetFlowVisualizer typename "\"inet.visualizer.canvas.flow.PacketFlowCanvasVisualizer\""
par NoMobility.visualizer.packetFlowVisualizer visualizationTargetModule "\"^.^\""
par NoMobility.visualizer.packetFlowVisualizer visualizationSubjectModule "\"^.^\""
par NoMobility.visualizer.packetFlowVisualizer tags "\"\""
par NoMobility.visualizer.packetFlowVisualizer displayRoutes true
par NoMobility.visualizer.packetFlowVisualizer startPathSignal "\"packetFlowStarted\""
par NoMobility.visualizer.packetFlowVisualizer extendPathSignal "\"packetReceivedFromLower\""
par NoMobility.visualizer.packetFlowVisualizer endPathSignal "\"packetFlowEnded\""
par NoMobility.visualizer.packetFlowVisualizer nodeFilter "\"*\""
attr mutable ""
par NoMobility.visualizer.packetFlowVisualizer packetFilter "(omnetpp::cValueHolder)holder: \"*\""
attr mutable ""
par NoMobility.visualizer.packetFlowVisualizer lineColor "\"dark\""
par NoMobility.visualizer.packetFlowVisualizer lineStyle "\"dashed\""
par NoMobility.visualizer.packetFlowVisualizer lineWidth 3
par NoMobility.visualizer.packetFlowVisualizer lineSmooth false
par NoMobility.visualizer.packetFlowVisualizer lineShift 16
par NoMobility.visualizer.packetFlowVisualizer lineShiftMode "\"normal\""
par NoMobility.visualizer.packetFlowVisualizer lineContactSpacing 3
par NoMobility.visualizer.packetFlowVisualizer lineContactMode "\"rectangular\""
attr enum circular,rectangular
par NoMobility.visualizer.packetFlowVisualizer labelFormat "\"%L %p pk (%l)\""
par NoMobility.visualizer.packetFlowVisualizer labelFont "\"<default>, 8px\""
par NoMobility.visualizer.packetFlowVisualizer labelColor "\"\""
par NoMobility.visualizer.packetFlowVisualizer fadeOutMode "\"realTime\""
attr enum realTime,animationTime,simulationTime
par NoMobility.visualizer.packetFlowVisualizer fadeOutTime 0s
attr unit s
par NoMobility.visualizer.packetFlowVisualizer fadeOutAnimationSpeed 0
par NoMobility.visualizer.packetFlowVisualizer zIndex 4
par NoMobility.visualizer.queueVisualizer typename "\"inet.visualizer.canvas.common.QueueCanvasVisualizer\""
par NoMobility.visualizer.queueVisualizer visualizationTargetModule "\"^.^\""
par NoMobility.visualizer.queueVisualizer visualizationSubjectModule "\"^.^\""
par NoMobility.visualizer.queueVisualizer tags "\"\""
par NoMobility.visualizer.queueVisualizer networkNodeVisualizerModule "\"^.networkNodeVisualizer\""
par NoMobility.visualizer.queueVisualizer displayQueues false
par NoMobility.visualizer.queueVisualizer queueFilter "\"**\""
par NoMobility.visualizer.queueVisualizer color "\"blue\""
par NoMobility.visualizer.queueVisualizer width 8
par NoMobility.visualizer.queueVisualizer height 24
par NoMobility.visualizer.queueVisualizer spacing 2
par NoMobility.visualizer.queueVisualizer placementHint "\"right\""
par NoMobility.visualizer.queueVisualizer placementPriority 0
par NoMobility.visualizer.queueVisualizer zIndex 10
par NoMobility.visualizer.gateScheduleVisualizer typename "\"inet.visualizer.canvas.common.GateScheduleCanvasVisualizer\""
par NoMobility.visualizer.gateScheduleVisualizer visualizationTargetModule "\"^.^\""
par NoMobility.visualizer.gateScheduleVisualizer visualizationSubjectModule "\"^.^\""
par NoMobility.visualizer.gateScheduleVisualizer tags "\"\""
par NoMobility.visualizer.gateScheduleVisualizer networkNodeVisualizerModule "\"^.networkNodeVisualizer\""
par NoMobility.visualizer.gateScheduleVisualizer displayGateSchedules false
par NoMobility.visualizer.gateScheduleVisualizer labelFormat "\"%i %D\""
par NoMobility.visualizer.gateScheduleVisualizer gateFilter "\"**\""
par NoMobility.visualizer.gateScheduleVisualizer width 100
par NoMobility.visualizer.gateScheduleVisualizer height 8
par NoMobility.visualizer.gateScheduleVisualizer spacing 2
par NoMobility.visualizer.gateScheduleVisualizer placementHint "\"right\""
par NoMobility.visualizer.gateScheduleVisualizer placementPriority 0
par NoMobility.visualizer.gateScheduleVisualizer displayDuration 0s
attr mutable ""
attr unit s
par NoMobility.visualizer.gateScheduleVisualizer currentTimePosition 50
par NoMobility.visualizer.gateScheduleVisualizer zIndex 10
par NoMobility.visualizer.radioVisualizer typename "\"inet.visualizer.canvas.physicallayer.RadioCanvasVisualizer\""
par NoMobility.visualizer.radioVisualizer visualizationTargetModule "\"^.^\""
par NoMobility.visualizer.radioVisualizer visualizationSubjectModule "\"^.^\""
par NoMobility.visualizer.radioVisualizer tags "\"\""
par NoMobility.visualizer.radioVisualizer networkNodeVisualizerModule "\"^.networkNodeVisualizer\""
par NoMobility.visualizer.radioVisualizer displayRadios false
par NoMobility.visualizer.radioVisualizer displayRadioMode true
par NoMobility.visualizer.radioVisualizer displayReceptionState true
par NoMobility.visualizer.radioVisualizer displayTransmissionState true
par NoMobility.visualizer.radioVisualizer displayAntennaLobes false
par NoMobility.visualizer.radioVisualizer radioFilter "\"**\""
attr mutable ""
par NoMobility.visualizer.radioVisualizer radioModeImages "\"block/process_vs block/timer_vs block/wrx_vs block/wtx_vs block/wrxtx_vs block/cogwheel_vs\""
par NoMobility.visualizer.radioVisualizer receptionStateImages "\"- - misc/receiving misc/receiving\""
par NoMobility.visualizer.radioVisualizer transmissionStateImages "\"- - misc/transmitting\""
par NoMobility.visualizer.radioVisualizer width 16
par NoMobility.visualizer.radioVisualizer height 16
par NoMobility.visualizer.radioVisualizer placementHint "\"bottomRight\""
par NoMobility.visualizer.radioVisualizer placementPriority 0
par NoMobility.visualizer.radioVisualizer antennaLobeNormalize false
par NoMobility.visualizer.radioVisualizer antennaLobeRelativeLabels false
par NoMobility.visualizer.radioVisualizer antennaLobePlaneGlobal true
par NoMobility.visualizer.radioVisualizer antennaLobePlane "\"view\""
attr enum view,xy,xz,yz
par NoMobility.visualizer.radioVisualizer antennaLobeMode "\"logarithmic\""
attr enum logarithmic,linear
par NoMobility.visualizer.radioVisualizer antennaLobeLogarithmicBase 10
par NoMobility.visualizer.radioVisualizer antennaLobeLogarithmicScale 100
par NoMobility.visualizer.radioVisualizer antennaLobeRadius 100
par NoMobility.visualizer.radioVisualizer antennaLobeStep 10deg
attr unit deg
par NoMobility.visualizer.radioVisualizer antennaLobeOpacity 0.25
par NoMobility.visualizer.radioVisualizer antennaLobeLineSmooth true
par NoMobility.visualizer.radioVisualizer antennaLobeLineColor "\"black\""
par NoMobility.visualizer.radioVisualizer antennaLobeLineStyle "\"solid\""
par NoMobility.visualizer.radioVisualizer antennaLobeLineWidth 1
par NoMobility.visualizer.radioVisualizer antennaLobeFillColor "\"white\""
par NoMobility.visualizer.radioVisualizer zIndex 10
par NoMobility.visualizer.physicalLinkVisualizer typename "\"inet.visualizer.canvas.physicallayer.PhysicalLinkCanvasVisualizer\""
par NoMobility.visualizer.physicalLinkVisualizer visualizationTargetModule "\"^.^\""
par NoMobility.visualizer.physicalLinkVisualizer visualizationSubjectModule "\"^.^\""
par NoMobility.visualizer.physicalLinkVisualizer tags "\"\""
par NoMobility.visualizer.physicalLinkVisualizer displayLinks false
par NoMobility.visualizer.physicalLinkVisualizer activityLevel "\"service\""
attr enum service,peer,protocol
par NoMobility.visualizer.physicalLinkVisualizer nodeFilter "\"*\""
attr mutable ""
par NoMobility.visualizer.physicalLinkVisualizer interfaceFilter "\"*\""
attr mutable ""
par NoMobility.visualizer.physicalLinkVisualizer packetFilter "(omnetpp::cValueHolder)holder: \"*\""
attr mutable ""
par NoMobility.visualizer.physicalLinkVisualizer lineColor "\"olive\""
par NoMobility.visualizer.physicalLinkVisualizer lineStyle "\"dotted\""
par NoMobility.visualizer.physicalLinkVisualizer lineWidth 3
par NoMobility.visualizer.physicalLinkVisualizer lineShift 16
par NoMobility.visualizer.physicalLinkVisualizer lineShiftMode "\"normal\""
par NoMobility.visualizer.physicalLinkVisualizer lineContactSpacing 3
par NoMobility.visualizer.physicalLinkVisualizer lineContactMode "\"rectangular\""
attr enum circular,rectangular
par NoMobility.visualizer.physicalLinkVisualizer labelFormat "\"%n\""
par NoMobility.visualizer.physicalLinkVisualizer labelFont "\"<default>, 8px\""
par NoMobility.visualizer.physicalLinkVisualizer labelColor "\"olive\""
par NoMobility.visualizer.physicalLinkVisualizer fadeOutMode "\"realTime\""
attr enum realTime,animationTime,simulationTime
par NoMobility.visualizer.physicalLinkVisualizer fadeOutTime 1s
attr unit s
par NoMobility.visualizer.physicalLinkVisualizer fadeOutAnimationSpeed 0
par NoMobility.visualizer.physicalLinkVisualizer holdAnimationTime 0s
attr unit s
par NoMobility.visualizer.physicalLinkVisualizer zIndex 1
par NoMobility.visualizer.interfaceTableVisualizer typename "\"inet.visualizer.canvas.linklayer.InterfaceTableCanvasVisualizer\""
par NoMobility.visualizer.interfaceTableVisualizer visualizationTargetModule "\"^.^\""
par NoMobility.visualizer.interfaceTableVisualizer visualizationSubjectModule "\"^.^\""
par NoMobility.visualizer.interfaceTableVisualizer tags "\"\""
par NoMobility.visualizer.interfaceTableVisualizer networkNodeVisualizerModule "\"^.networkNodeVisualizer\""
par NoMobility.visualizer.interfaceTableVisualizer displayInterfaceTables false
par NoMobility.visualizer.interfaceTableVisualizer displayWiredInterfacesAtConnections true
par NoMobility.visualizer.interfaceTableVisualizer displayBackground false
par NoMobility.visualizer.interfaceTableVisualizer nodeFilter "\"*\""
attr mutable ""
par NoMobility.visualizer.interfaceTableVisualizer interfaceFilter "\"not(lo*)\""
attr mutable ""
par NoMobility.visualizer.interfaceTableVisualizer format "\"%N %\\\\%a%/%l\""
attr mutable ""
par NoMobility.visualizer.interfaceTableVisualizer placementHint "\"top\""
par NoMobility.visualizer.interfaceTableVisualizer placementPriority 0
par NoMobility.visualizer.interfaceTableVisualizer font "\"<default>\""
par NoMobility.visualizer.interfaceTableVisualizer textColor "\"#005030\""
par NoMobility.visualizer.interfaceTableVisualizer backgroundColor "\"white\""
par NoMobility.visualizer.interfaceTableVisualizer opacity 1
par NoMobility.visualizer.interfaceTableVisualizer zIndex 10
par NoMobility.visualizer.dataLinkVisualizer typename "\"inet.visualizer.canvas.linklayer.DataLinkCanvasVisualizer\""
par NoMobility.visualizer.dataLinkVisualizer visualizationTargetModule "\"^.^\""
par NoMobility.visualizer.dataLinkVisualizer visualizationSubjectModule "\"^.^\""
par NoMobility.visualizer.dataLinkVisualizer tags "\"\""
par NoMobility.visualizer.dataLinkVisualizer displayLinks true
par NoMobility.visualizer.dataLinkVisualizer activityLevel "\"service\""
attr enum service,peer,protocol
par NoMobility.visualizer.dataLinkVisualizer nodeFilter "\"*\""
attr mutable ""
par NoMobility.visualizer.dataLinkVisualizer interfaceFilter "\"*\""
attr mutable ""
par NoMobility.visualizer.dataLinkVisualizer packetFilter "(omnetpp::cValueHolder)holder: \"*\""
attr mutable ""
par NoMobility.visualizer.dataLinkVisualizer lineColor "\"darkcyan\""
par NoMobility.visualizer.dataLinkVisualizer lineStyle "\"solid\""
par NoMobility.visualizer.dataLinkVisualizer lineWidth 3
par NoMobility.visualizer.dataLinkVisualizer lineShift 16
par NoMobility.visualizer.dataLinkVisualizer lineShiftMode "\"normal\""
par NoMobility.visualizer.dataLinkVisualizer lineContactSpacing 3
par NoMobility.visualizer.dataLinkVisualizer lineContactMode "\"rectangular\""
attr enum circular,rectangular
par NoMobility.visualizer.dataLinkVisualizer labelFormat "\"%n\""
par NoMobility.visualizer.dataLinkVisualizer labelFont "\"<default>, 8px\""
par NoMobility.visualizer.dataLinkVisualizer labelColor "\"darkcyan\""
par NoMobility.visualizer.dataLinkVisualizer fadeOutMode "\"realTime\""
attr enum realTime,animationTime,simulationTime
par NoMobility.visualizer.dataLinkVisualizer fadeOutTime 1s
attr unit s
par NoMobility.visualizer.dataLinkVisualizer fadeOutAnimationSpeed 0
par NoMobility.visualizer.dataLinkVisualizer holdAnimationTime 0s
attr unit s
par NoMobility.visualizer.dataLinkVisualizer zIndex 2
par NoMobility.visualizer.linkBreakVisualizer typename "\"inet.visualizer.canvas.linklayer.LinkBreakCanvasVisualizer\""
par NoMobility.visualizer.linkBreakVisualizer visualizationTargetModule "\"^.^\""
par NoMobility.visualizer.linkBreakVisualizer visualizationSubjectModule "\"^.^\""
par NoMobility.visualizer.linkBreakVisualizer tags "\"\""
par NoMobility.visualizer.linkBreakVisualizer displayLinkBreaks false
par NoMobility.visualizer.linkBreakVisualizer nodeFilter "\"*\""
attr mutable ""
par NoMobility.visualizer.linkBreakVisualizer interfaceFilter "\"*\""
attr mutable ""
par NoMobility.visualizer.linkBreakVisualizer packetFilter "(omnetpp::cValueHolder)holder: \"*\""
attr mutable ""
par NoMobility.visualizer.linkBreakVisualizer icon "\"status/stop\""
par NoMobility.visualizer.linkBreakVisualizer iconTintAmount 0
par NoMobility.visualizer.linkBreakVisualizer iconTintColor "\"\""
par NoMobility.visualizer.linkBreakVisualizer fadeOutMode "\"realTime\""
attr enum realTime,animationTime,simulationTime
par NoMobility.visualizer.linkBreakVisualizer fadeOutTime 1s
attr unit s
par NoMobility.visualizer.linkBreakVisualizer fadeOutAnimationSpeed 0
par NoMobility.visualizer.linkBreakVisualizer zIndex 2
par NoMobility.visualizer.ieee80211Visualizer typename "\"inet.visualizer.canvas.linklayer.Ieee80211CanvasVisualizer\""
par NoMobility.visualizer.ieee80211Visualizer visualizationTargetModule "\"^.^\""
par NoMobility.visualizer.ieee80211Visualizer visualizationSubjectModule "\"^.^\""
par NoMobility.visualizer.ieee80211Visualizer tags "\"\""
par NoMobility.visualizer.ieee80211Visualizer networkNodeVisualizerModule "\"^.networkNodeVisualizer\""
par NoMobility.visualizer.ieee80211Visualizer displayAssociations false
par NoMobility.visualizer.ieee80211Visualizer nodeFilter "\"*\""
attr mutable ""
par NoMobility.visualizer.ieee80211Visualizer interfaceFilter "\"*\""
attr mutable ""
par NoMobility.visualizer.ieee80211Visualizer minPower -85dBm
attr unit dBm
par NoMobility.visualizer.ieee80211Visualizer maxPower -50dBm
attr unit dBm
par NoMobility.visualizer.ieee80211Visualizer icons "\"misc/signal_power_0 misc/signal_power_1 misc/signal_power_2 misc/signal_power_3\""
par NoMobility.visualizer.ieee80211Visualizer iconColor "\"dark\""
par NoMobility.visualizer.ieee80211Visualizer labelFont "\"<default>\""
par NoMobility.visualizer.ieee80211Visualizer labelColor "\"black\""
par NoMobility.visualizer.ieee80211Visualizer placementHint "\"top\""
par NoMobility.visualizer.ieee80211Visualizer placementPriority 0
par NoMobility.visualizer.ieee80211Visualizer zIndex 2
par NoMobility.visualizer.networkRouteVisualizer typename "\"inet.visualizer.canvas.networklayer.NetworkRouteCanvasVisualizer\""
par NoMobility.visualizer.networkRouteVisualizer visualizationTargetModule "\"^.^\""
par NoMobility.visualizer.networkRouteVisualizer visualizationSubjectModule "\"^.^\""
par NoMobility.visualizer.networkRouteVisualizer tags "\"\""
par NoMobility.visualizer.networkRouteVisualizer displayRoutes false
par NoMobility.visualizer.networkRouteVisualizer startPathSignal "\"packetReceivedFromUpper\""
par NoMobility.visualizer.networkRouteVisualizer extendPathSignal "\"packetReceivedFromLower\""
par NoMobility.visualizer.networkRouteVisualizer endPathSignal "\"packetSentToUpper\""
par NoMobility.visualizer.networkRouteVisualizer nodeFilter "\"*\""
attr mutable ""
par NoMobility.visualizer.networkRouteVisualizer packetFilter "(omnetpp::cValueHolder)holder: \"*\""
attr mutable ""
par NoMobility.visualizer.networkRouteVisualizer lineColor "\"dark\""
par NoMobility.visualizer.networkRouteVisualizer lineStyle "\"solid\""
par NoMobility.visualizer.networkRouteVisualizer lineWidth 3
par NoMobility.visualizer.networkRouteVisualizer lineSmooth false
par NoMobility.visualizer.networkRouteVisualizer lineShift 16
par NoMobility.visualizer.networkRouteVisualizer lineShiftMode "\"normal\""
par NoMobility.visualizer.networkRouteVisualizer lineContactSpacing 3
par NoMobility.visualizer.networkRouteVisualizer lineContactMode "\"rectangular\""
attr enum circular,rectangular
par NoMobility.visualizer.networkRouteVisualizer labelFormat "\"%n\""
par NoMobility.visualizer.networkRouteVisualizer labelFont "\"<default>, 8px\""
par NoMobility.visualizer.networkRouteVisualizer labelColor "\"\""
par NoMobility.visualizer.networkRouteVisualizer fadeOutMode "\"realTime\""
attr enum realTime,animationTime,simulationTime
par NoMobility.visualizer.networkRouteVisualizer fadeOutTime 1s
attr unit s
par NoMobility.visualizer.networkRouteVisualizer fadeOutAnimationSpeed 0
par NoMobility.visualizer.networkRouteVisualizer zIndex 3
par NoMobility.visualizer.routingTableVisualizer typename "\"inet.visualizer.canvas.networklayer.RoutingTableCanvasVisualizer\""
par NoMobility.visualizer.routingTableVisualizer visualizationTargetModule "\"^.^\""
par NoMobility.visualizer.routingTableVisualizer visualizationSubjectModule "\"^.^\""
par NoMobility.visualizer.routingTableVisualizer tags "\"\""
par NoMobility.visualizer.routingTableVisualizer displayRoutingTables false
par NoMobility.visualizer.routingTableVisualizer displayRoutesIndividually true
par NoMobility.visualizer.routingTableVisualizer displayLabels true
par NoMobility.visualizer.routingTableVisualizer destinationFilter "\"*\""
attr mutable ""
par NoMobility.visualizer.routingTableVisualizer nodeFilter "\"*\""
attr mutable ""
par NoMobility.visualizer.routingTableVisualizer lineColor "\"black\""
par NoMobility.visualizer.routingTableVisualizer lineStyle "\"solid\""
par NoMobility.visualizer.routingTableVisualizer lineWidth 2
par NoMobility.visualizer.routingTableVisualizer lineShift 16
par NoMobility.visualizer.routingTableVisualizer lineShiftMode "\"normal\""
par NoMobility.visualizer.routingTableVisualizer lineContactSpacing 3
par NoMobility.visualizer.routingTableVisualizer lineContactMode "\"rectangular\""
attr enum circular,rectangular
par NoMobility.visualizer.routingTableVisualizer labelFormat "\"%d/%m -> %g (%n)\""
attr mutable ""
par NoMobility.visualizer.routingTableVisualizer labelFont "\"<default>, 8px\""
par NoMobility.visualizer.routingTableVisualizer labelColor "\"black\""
par NoMobility.visualizer.routingTableVisualizer zIndex 0
par NoMobility.visualizer.transportRouteVisualizer typename "\"inet.visualizer.canvas.transportlayer.TransportRouteCanvasVisualizer\""
par NoMobility.visualizer.transportRouteVisualizer visualizationTargetModule "\"^.^\""
par NoMobility.visualizer.transportRouteVisualizer visualizationSubjectModule "\"^.^\""
par NoMobility.visualizer.transportRouteVisualizer tags "\"\""
par NoMobility.visualizer.transportRouteVisualizer displayRoutes false
par NoMobility.visualizer.transportRouteVisualizer startPathSignal "\"packetReceivedFromUpper\""
par NoMobility.visualizer.transportRouteVisualizer extendPathSignal "\"packetReceivedFromLower\""
par NoMobility.visualizer.transportRouteVisualizer endPathSignal "\"packetSentToUpper\""
par NoMobility.visualizer.transportRouteVisualizer nodeFilter "\"*\""
attr mutable ""
par NoMobility.visualizer.transportRouteVisualizer packetFilter "(omnetpp::cValueHolder)holder: \"*\""
attr mutable ""
par NoMobility.visualizer.transportRouteVisualizer lineColor "\"dark\""
par NoMobility.visualizer.transportRouteVisualizer lineStyle "\"solid\""
par NoMobility.visualizer.transportRouteVisualizer lineWidth 3
par NoMobility.visualizer.transportRouteVisualizer lineSmooth false
par NoMobility.visualizer.transportRouteVisualizer lineShift 16
par NoMobility.visualizer.transportRouteVisualizer lineShiftMode "\"normal\""
par NoMobility.visualizer.transportRouteVisualizer lineContactSpacing 3
par NoMobility.visualizer.transportRouteVisualizer lineContactMode "\"rectangular\""
attr enum circular,rectangular
par NoMobility.visualizer.transportRouteVisualizer labelFormat "\"%n\""
par NoMobility.visualizer.transportRouteVisualizer labelFont "\"<default>, 8px\""
par NoMobility.visualizer.transportRouteVisualizer labelColor "\"\""
par NoMobility.visualizer.transportRouteVisualizer fadeOutMode "\"realTime\""
attr enum realTime,animationTime,simulationTime
par NoMobility.visualizer.transportRouteVisualizer fadeOutTime 1s
attr unit s
par NoMobility.visualizer.transportRouteVisualizer fadeOutAnimationSpeed 0
par NoMobility.visualizer.transportRouteVisualizer zIndex 4
par NoMobility.visualizer.transportConnectionVisualizer typename "\"inet.visualizer.canvas.transportlayer.TransportConnectionCanvasVisualizer\""
par NoMobility.visualizer.transportConnectionVisualizer visualizationTargetModule "\"^.^\""
par NoMobility.visualizer.transportConnectionVisualizer visualizationSubjectModule "\"^.^\""
par NoMobility.visualizer.transportConnectionVisualizer tags "\"\""
par NoMobility.visualizer.transportConnectionVisualizer networkNodeVisualizerModule "\"^.networkNodeVisualizer\""
par NoMobility.visualizer.transportConnectionVisualizer displayTransportConnections false
par NoMobility.visualizer.transportConnectionVisualizer sourceNodeFilter "\"*\""
attr mutable ""
par NoMobility.visualizer.transportConnectionVisualizer sourcePortFilter "\"*\""
attr mutable ""
par NoMobility.visualizer.transportConnectionVisualizer destinationNodeFilter "\"*\""
attr mutable ""
par NoMobility.visualizer.transportConnectionVisualizer destinationPortFilter "\"*\""
attr mutable ""
par NoMobility.visualizer.transportConnectionVisualizer icon "\"misc/marker_s\""
par NoMobility.visualizer.transportConnectionVisualizer iconColor "\"dark\""
par NoMobility.visualizer.transportConnectionVisualizer labelFont "\"<default>\""
par NoMobility.visualizer.transportConnectionVisualizer labelColor "\"black\""
par NoMobility.visualizer.transportConnectionVisualizer placementHint "\"top\""
par NoMobility.visualizer.transportConnectionVisualizer placementPriority 0
par NoMobility.visualizer.transportConnectionVisualizer zIndex 4
par NoMobility.visualizer.failureProtectionConfigurationVisualizer typename "\"inet.visualizer.canvas.configurator.FailureProtectionConfigurationCanvasVisualizer\""
par NoMobility.visualizer.failureProtectionConfigurationVisualizer visualizationTargetModule "\"^.^\""
par NoMobility.visualizer.failureProtectionConfigurationVisualizer visualizationSubjectModule "\"^.^\""
par NoMobility.visualizer.failureProtectionConfigurationVisualizer tags "\"\""
par NoMobility.visualizer.failureProtectionConfigurationVisualizer displayTrees false
par NoMobility.visualizer.failureProtectionConfigurationVisualizer lineColor "\"dark\""
par NoMobility.visualizer.failureProtectionConfigurationVisualizer lineStyle "\"solid\""
par NoMobility.visualizer.failureProtectionConfigurationVisualizer lineWidth 3
par NoMobility.visualizer.failureProtectionConfigurationVisualizer lineSmooth false
par NoMobility.visualizer.failureProtectionConfigurationVisualizer lineShift 16
par NoMobility.visualizer.failureProtectionConfigurationVisualizer lineShiftMode "\"normal\""
par NoMobility.visualizer.failureProtectionConfigurationVisualizer lineContactSpacing 3
par NoMobility.visualizer.failureProtectionConfigurationVisualizer lineContactMode "\"rectangular\""
attr enum circular,rectangular
par NoMobility.visualizer.failureProtectionConfigurationVisualizer failureProtectionConfiguratorModule "\"failureProtectionConfigurator\""
par NoMobility.visualizer.failureProtectionConfigurationVisualizer streamFilter "\"*\""
par NoMobility.visualizer.failureProtectionConfigurationVisualizer zIndex 3
par NoMobility.visualizer.streamRedundancyConfigurationVisualizer typename "\"inet.visualizer.canvas.configurator.StreamRedundancyConfigurationCanvasVisualizer\""
par NoMobility.visualizer.streamRedundancyConfigurationVisualizer visualizationTargetModule "\"^.^\""
par NoMobility.visualizer.streamRedundancyConfigurationVisualizer visualizationSubjectModule "\"^.^\""
par NoMobility.visualizer.streamRedundancyConfigurationVisualizer tags "\"\""
par NoMobility.visualizer.streamRedundancyConfigurationVisualizer displayTrees false
par NoMobility.visualizer.streamRedundancyConfigurationVisualizer lineColor "\"dark\""
par NoMobility.visualizer.streamRedundancyConfigurationVisualizer lineStyle "\"solid\""
par NoMobility.visualizer.streamRedundancyConfigurationVisualizer lineWidth 3
par NoMobility.visualizer.streamRedundancyConfigurationVisualizer lineSmooth false
par NoMobility.visualizer.streamRedundancyConfigurationVisualizer lineShift 16
par NoMobility.visualizer.streamRedundancyConfigurationVisualizer lineShiftMode "\"normal\""
par NoMobility.visualizer.streamRedundancyConfigurationVisualizer lineContactSpacing 3
par NoMobility.visualizer.streamRedundancyConfigurationVisualizer lineContactMode "\"rectangular\""
attr enum circular,rectangular
par NoMobility.visualizer.streamRedundancyConfigurationVisualizer streamRedundancyConfiguratorModule "\"streamRedundancyConfigurator\""
par NoMobility.visualizer.streamRedundancyConfigurationVisualizer streamFilter "\"*\""
par NoMobility.visualizer.streamRedundancyConfigurationVisualizer zIndex 3
par NoMobility.visualizer typename "\"inet.visualizer.canvas.integrated.IntegratedCanvasVisualizer\""
par NoMobility.configurator typename "\"inet.networklayer.configurator.ipv4.Ipv4NetworkConfigurator\""
par NoMobility.configurator minLinkWeight 0.001
par NoMobility.configurator configureIsolatedNetworksSeparatly false
par NoMobility.configurator config "<config>...</config> at content:1"
par NoMobility.configurator assignAddresses true
par NoMobility.configurator assignUniqueAddresses true
par NoMobility.configurator assignDisjunctSubnetAddresses true
par NoMobility.configurator addStaticRoutes true
par NoMobility.configurator addDefaultRoutes true
par NoMobility.configurator addSubnetRoutes true
par NoMobility.configurator addDirectRoutes true
par NoMobility.configurator optimizeRoutes true
par NoMobility.configurator dumpTopology false
par NoMobility.configurator dumpLinks false
par NoMobility.configurator dumpAddresses false
par NoMobility.configurator dumpRoutes false
par NoMobility.configurator dumpConfig "\"\""
par NoMobility.radioMedium.propagation typename "\"inet.physicallayer.wireless.common.propagation.ConstantSpeedPropagation\""
par NoMobility.radioMedium.propagation propagationSpeed 2.99792e+08mps
attr unit mps
par NoMobility.radioMedium.propagation ignoreMovementDuringTransmission true
par NoMobility.radioMedium.propagation ignoreMovementDuringPropagation true
par NoMobility.radioMedium.propagation ignoreMovementDuringReception true
scalar NoMobility.radioMedium.propagation "Arrival computation count" 105
par NoMobility.radioMedium.analogModel typename "\"inet.physicallayer.wireless.unitdisk.UnitDiskAnalogModel\""
par NoMobility.radioMedium.pathLoss typename "\"inet.physicallayer.wireless.common.pathloss.FreeSpacePathLoss\""
par NoMobility.radioMedium.pathLoss alpha 2
par NoMobility.radioMedium.pathLoss systemLoss 0dB
attr unit dB
par NoMobility.radioMedium.mediumLimitCache typename "\"inet.physicallayer.wireless.common.medium.MediumLimitCache\""
par NoMobility.radioMedium.mediumLimitCache centerFrequency "nan Hz"
attr unit Hz
par NoMobility.radioMedium.mediumLimitCache maxSpeed "nan mps"
attr unit mps
par NoMobility.radioMedium.mediumLimitCache maxTransmissionPower "nan W"
attr unit W
par NoMobility.radioMedium.mediumLimitCache minInterferencePower "nan dBm"
attr unit dBm
par NoMobility.radioMedium.mediumLimitCache minReceptionPower "nan dBm"
attr unit dBm
par NoMobility.radioMedium.mediumLimitCache maxAntennaGain 0dB
attr unit dB
par NoMobility.radioMedium.mediumLimitCache minInterferenceTime 1e-12s
attr unit s
par NoMobility.radioMedium.mediumLimitCache maxTransmissionDuration 0.01s
attr unit s
par NoMobility.radioMedium.mediumLimitCache maxCommunicationRange "nan m"
attr unit m
par NoMobility.radioMedium.mediumLimitCache maxInterferenceRange "nan m"
attr unit m
par NoMobility.radioMedium.communicationCache typename "\"inet.physicallayer.wireless.common.communicationcache.VectorCommunicationCache\""
par NoMobility.radioMedium typename "\"inet.physicallayer.wireless.unitdisk.UnitDiskRadioMedium\""
par NoMobility.radioMedium physicalEnvironmentModule "\"physicalEnvironment\""
par NoMobility.radioMedium signalAnalogRepresentation "\"unitDisk\""
attr enum unitDisk,scalar,dimensional
par NoMobility.radioMedium rangeFilter "\"\""
par NoMobility.radioMedium radioModeFilter false
par NoMobility.radioMedium listeningFilter false
par NoMobility.radioMedium macAddressFilter false
par NoMobility.radioMedium recordTransmissionLog false
par NoMobility.radioMedium recordReceptionLog false
scalar NoMobility.radioMedium "transmission count" 15
scalar NoMobility.radioMedium "signal send count" 105
scalar NoMobility.radioMedium "reception computation count" 105
scalar NoMobility.radioMedium "interference computation count" 352
scalar NoMobility.radioMedium "reception decision computation count" 24
scalar NoMobility.radioMedium "listening decision computation count" 223
scalar NoMobility.radioMedium "reception cache hit" 82.587064676617
attr unit %
scalar NoMobility.radioMedium "interference cache hit" 66.666666666667
attr unit %
scalar NoMobility.radioMedium "noise cache hit" 0
attr unit %
scalar NoMobility.radioMedium "snir cache hit" 50
attr unit %
scalar NoMobility.radioMedium "reception decision cache hit" 50
attr unit %
scalar NoMobility.radioMedium "reception result cache hit" 0
attr unit %
par NoMobility.host0.radioIn[0].channel typename "\"ned.IdealChannel\""
par NoMobility.host0.mobility typename "\"inet.mobility.static.StationaryMobility\""
par NoMobility.host0.mobility subjectModule "\"^\""
par NoMobility.host0.mobility coordinateSystemModule "\"\""
par NoMobility.host0.mobility displayStringTextFormat "\"p: %p\\nv: %v\""
attr mutable ""
par NoMobility.host0.mobility updateDisplayString true
par NoMobility.host0.mobility constraintAreaMinX 0m
attr unit m
par NoMobility.host0.mobility constraintAreaMinY 0m
attr unit m
par NoMobility.host0.mobility constraintAreaMinZ 0m
attr unit m
par NoMobility.host0.mobility constraintAreaMaxX 1800m
attr unit m
par NoMobility.host0.mobility constraintAreaMaxY 1000m
attr unit m
par NoMobility.host0.mobility constraintAreaMaxZ 0m
attr unit m
par NoMobility.host0.mobility initialX 987.864m
attr unit m
par NoMobility.host0.mobility initialY 592.845m
attr unit m
par NoMobility.host0.mobility initialZ 0m
attr unit m
par NoMobility.host0.mobility initialLatitude "nan deg"
attr unit deg
par NoMobility.host0.mobility initialLongitude "nan deg"
attr unit deg
par NoMobility.host0.mobility initialAltitude 0m
attr unit m
par NoMobility.host0.mobility initialHeading 0deg
attr unit deg
par NoMobility.host0.mobility initialElevation 0deg
attr unit deg
par NoMobility.host0.mobility initialBank 0deg
attr unit deg
par NoMobility.host0.mobility initFromDisplayString true
par NoMobility.host0.mobility updateFromDisplayString true
par NoMobility.host0.interfaceTable typename "\"inet.networklayer.common.InterfaceTable\""
par NoMobility.host0.interfaceTable displayAddresses false
par NoMobility.host0.cb typename "\"inet.common.MessageDispatcher\""
par NoMobility.host0.cb displayStringTextFormat "\"processed %p pk (%l)\""
par NoMobility.host0.cb forwardServiceRegistration true
par NoMobility.host0.cb forwardProtocolRegistration true
par NoMobility.host0.bl typename "\"inet.common.MessageDispatcher\""
par NoMobility.host0.bl displayStringTextFormat "\"processed %p pk (%l)\""
par NoMobility.host0.bl forwardServiceRegistration true
par NoMobility.host0.bl forwardProtocolRegistration true
par NoMobility.host0.li typename "\"inet.common.MessageDispatcher\""
par NoMobility.host0.li displayStringTextFormat "\"processed %p pk (%l)\""
par NoMobility.host0.li forwardServiceRegistration true
par NoMobility.host0.li forwardProtocolRegistration true
par NoMobility.host0.lo[0].upperLayerIn.channel typename "\"ned.IdealChannel\""
par NoMobility.host0.lo[0].lo.upperLayerOut.channel typename "\"ned.IdealChannel\""
par NoMobility.host0.lo[0].lo typename "\"inet.linklayer.loopback.Loopback\""
par NoMobility.host0.lo[0].lo interfaceTableModule "\"NoMobility.host0.interfaceTable\""
par NoMobility.host0.lo[0].lo mtu 4470B
attr unit B
scalar NoMobility.host0.lo[0].lo rcvdPkFromHl:count 0
attr interpolationmode none
attr recordingmode count
attr source packetReceivedFromUpper
attr title "packets received from higher layer, count"
scalar NoMobility.host0.lo[0].lo rcvdPkFromHl:sum(packetBytes) 0
attr interpolationmode none
attr recordingmode sum(packetBytes)
attr source packetReceivedFromUpper
attr title "packets received from higher layer, sum(packetBytes)"
scalar NoMobility.host0.lo[0].lo passedUpPk:count 0
attr interpolationmode none
attr recordingmode count
attr source packetSentToUpper
attr title "packets passed to higher layer, count"
scalar NoMobility.host0.lo[0].lo passedUpPk:sum(packetBytes) 0
attr interpolationmode none
attr recordingmode sum(packetBytes)
attr source packetSentToUpper
attr title "packets passed to higher layer, sum(packetBytes)"
par NoMobility.host0.lo[0] typename "\"inet.linklayer.loopback.LoopbackInterface\""
par NoMobility.host0.lo[0] displayStringTextFormat "\"%a (%i)\\n%m\""
par NoMobility.host0.lo[0] recordPcap false
par NoMobility.host0.lo[0] numPcapRecorders 0
par NoMobility.host0.lo[0] interfaceTableModule "\"NoMobility.host0.interfaceTable\""
scalar NoMobility.host0.lo[0] packetDropInterfaceDown:count 0
attr interpolationmode none
attr recordingmode count
attr source packetDropReasonIsInterfaceDown(packetDropped)
attr title "packet drops: interface down, count"
scalar NoMobility.host0.lo[0] packetDropInterfaceDown:sum(packetBytes) 0
attr interpolationmode none
attr recordingmode sum(packetBytes)
attr source packetDropReasonIsInterfaceDown(packetDropped)
attr title "packet drops: interface down, sum(packetBytes)"
scalar NoMobility.host0.lo[0] packetDropNoCarrier:count 0
attr interpolationmode none
attr recordingmode count
attr source packetDropReasonIsNoCarrier(packetDropped)
attr title "packet drops: no carrier, count"
scalar NoMobility.host0.lo[0] packetDropNoCarrier:sum(packetBytes) 0
attr interpolationmode none
attr recordingmode sum(packetBytes)
attr source packetDropReasonIsNoCarrier(packetDropped)
attr title "packet drops: no carrier, sum(packetBytes)"
par NoMobility.host0.wlan[0].upperLayerIn.channel typename "\"ned.IdealChannel\""
par NoMobility.host0.wlan[0].radioIn.channel typename "\"ned.IdealChannel\""
par NoMobility.host0.wlan[0].mac.upperLayerOut.channel typename "\"ned.IdealChannel\""
par NoMobility.host0.wlan[0].queue typename "\"inet.queueing.queue.DropTailQueue\""
par NoMobility.host0.wlan[0].queue displayStringTextFormat "\"contains %p pk (%l) pushed %u\\npulled %o removed %r dropped %d\""
par NoMobility.host0.wlan[0].queue packetCapacity 100
par NoMobility.host0.wlan[0].queue dataCapacity -1b
attr unit b
par NoMobility.host0.wlan[0].queue dropperClass "\"inet::queueing::PacketAtCollectionEndDropper\""
par NoMobility.host0.wlan[0].queue comparatorClass "\"\""
par NoMobility.host0.wlan[0].queue bufferModule "\"\""
scalar NoMobility.host0.wlan[0].queue queueLength:last 0
attr autoWarmupFilter false
attr interpolationmode sample-hold
attr recordingmode last
attr source "warmup(atomic(constant0(packetPushEnded) + count(packetPushStarted) - count(packetPulled) - count(packetRemoved) - count(packetDropped)))"
attr title "queue length, last"
attr unit pk
scalar NoMobility.host0.wlan[0].queue queueLength:max 0
attr autoWarmupFilter false
attr interpolationmode sample-hold
attr recordingmode max
attr source "warmup(atomic(constant0(packetPushEnded) + count(packetPushStarted) - count(packetPulled) - count(packetRemoved) - count(packetDropped)))"
attr title "queue length, max"
attr unit pk
scalar NoMobility.host0.wlan[0].queue queueLength:timeavg 0
attr autoWarmupFilter false
attr interpolationmode sample-hold
attr recordingmode timeavg
attr source "warmup(atomic(constant0(packetPushEnded) + count(packetPushStarted) - count(packetPulled) - count(packetRemoved) - count(packetDropped)))"
attr title "queue length, timeavg"
attr unit pk
scalar NoMobility.host0.wlan[0].queue queueBitLength:last 0
attr autoWarmupFilter false
attr interpolationmode sample-hold
attr recordingmode last
attr source "warmup(atomic(constant0(packetPushEnded) + sum(packetLength(packetPushStarted)) - sum(packetLength(packetPulled)) - sum(packetLength(packetRemoved)) - sum(packetLength(packetDropped))))"
attr title "queue bit length, last"
attr unit b
scalar NoMobility.host0.wlan[0].queue queueBitLength:max 0
attr autoWarmupFilter false
attr interpolationmode sample-hold
attr recordingmode max
attr source "warmup(atomic(constant0(packetPushEnded) + sum(packetLength(packetPushStarted)) - sum(packetLength(packetPulled)) - sum(packetLength(packetRemoved)) - sum(packetLength(packetDropped))))"
attr title "queue bit length, max"
attr unit b
scalar NoMobility.host0.wlan[0].queue queueBitLength:timeavg 0
attr autoWarmupFilter false
attr interpolationmode sample-hold
attr recordingmode timeavg
attr source "warmup(atomic(constant0(packetPushEnded) + sum(packetLength(packetPushStarted)) - sum(packetLength(packetPulled)) - sum(packetLength(packetRemoved)) - sum(packetLength(packetDropped))))"
attr title "queue bit length, timeavg"
attr unit b
statistic NoMobility.host0.wlan[0].queue queueingTime:histogram
field count 1
field mean 0
field stddev nan
field min 0
field max 0
field sum 0
field sqrsum 0
attr interpolationmode none
attr recordingmode histogram
attr source queueingTime(packetPulled)
attr title "queueing times"
attr unit s
bin	-inf	0
bin	-0.5	0
bin	-0.48	0
bin	-0.46	0
bin	-0.44	0
bin	-0.42	0
bin	-0.4	0
bin	-0.38	0
bin	-0.36	0
bin	-0.34	0
bin	-0.32	0
bin	-0.3	0
bin	-0.28	0
bin	-0.26	0
bin	-0.24	0
bin	-0.22	0
bin	-0.2	0
bin	-0.18	0
bin	-0.16	0
bin	-0.14	0
bin	-0.12	0
bin	-0.1	0
bin	-0.08	0
bin	-0.06	0
bin	-0.04	0
bin	-0.02	0
bin	0	1
bin	0.02	0
bin	0.04	0
bin	0.06	0
bin	0.08	0
bin	0.1	0
bin	0.12	0
bin	0.14	0
bin	0.16	0
bin	0.18	0
bin	0.2	0
bin	0.22	0
bin	0.24	0
bin	0.26	0
bin	0.28	0
bin	0.3	0
bin	0.32	0
bin	0.34	0
bin	0.36	0
bin	0.38	0
bin	0.4	0
bin	0.42	0
bin	0.44	0
bin	0.46	0
bin	0.48	0
bin	0.5	0
scalar NoMobility.host0.wlan[0].queue outgoingPackets:count 1
attr recordingmode count
attr source packetPulled
attr title "outgoing packets, count"
attr unit pk
scalar NoMobility.host0.wlan[0].queue outgoingPacketLengths:sum 48
attr interpolationmode none
attr recordingmode sum
attr source packetLength(packetPulled)
attr title "outgoing packet lengths, sum"
attr unit b
statistic NoMobility.host0.wlan[0].queue outgoingPacketLengths:histogram
field count 1
field mean 48
field stddev nan
field min 48
field max 48
field sum 48
field sqrsum 2304
attr interpolationmode none
attr recordingmode histogram
attr source packetLength(packetPulled)
attr title "outgoing packet lengths"
attr unit b
bin	-inf	0
bin	47	0
bin	48	1
bin	49	0
statistic NoMobility.host0.wlan[0].queue flowQueueingTime:histogram
field count 0
field mean nan
field stddev nan
field min nan
field max nan
field sum 0
field sqrsum 0
attr interpolationmode none
attr recordingmode histogram
attr source queueingTime(demuxFlow(packetPulled))
attr title "flow queueing times"
attr unit s
bin	-inf	0
bin	0	0
bin	1	0
scalar NoMobility.host0.wlan[0].queue incomingPackets:count 1
attr recordingmode count
attr source packetPushStarted
attr title "incoming packets, count"
attr unit pk
scalar NoMobility.host0.wlan[0].queue incomingPacketLengths:sum 48
attr interpolationmode none
attr recordingmode sum
attr source packetLength(packetPushStarted)
attr title "incoming packet lengths, sum"
attr unit b
statistic NoMobility.host0.wlan[0].queue incomingPacketLengths:histogram
field count 1
field mean 48
field stddev nan
field min 48
field max 48
field sum 48
field sqrsum 2304
attr interpolationmode none
attr recordingmode histogram
attr source packetLength(packetPushStarted)
attr title "incoming packet lengths"
attr unit b
bin	-inf	0
bin	47	0
bin	48	1
bin	49	0
scalar NoMobility.host0.wlan[0].queue droppedPacketsQueueOverflow:count 0
attr interpolationmode none
attr recordingmode count
attr source packetDropReasonIsQueueOverflow(packetDropped)
attr title "dropped packets: queue overflow, count"
attr unit pk
scalar NoMobility.host0.wlan[0].queue droppedPacketLengthsQueueOverflow:sum 0
attr interpolationmode none
attr recordingmode sum
attr source packetLength(packetDropReasonIsQueueOverflow(packetDropped))
attr title "dropped packet lengths: queue overflow, sum"
attr unit b
par NoMobility.host0.wlan[0].mac typename "\"inet.linklayer.acking.AckingMac\""
par NoMobility.host0.wlan[0].mac interfaceTableModule "\"NoMobility.host0.interfaceTable\""
par NoMobility.host0.wlan[0].mac address "\"auto\""
attr mutable ""
par NoMobility.host0.wlan[0].mac bitrate 2e+06bps
attr unit bps
par NoMobility.host0.wlan[0].mac mtu 4470B
attr unit B
par NoMobility.host0.wlan[0].mac headerLength 23B
attr unit B
par NoMobility.host0.wlan[0].mac promiscuous false
par NoMobility.host0.wlan[0].mac fullDuplex true
par NoMobility.host0.wlan[0].mac useAck true
par NoMobility.host0.wlan[0].mac ackTimeout 0.1s
attr unit s
scalar NoMobility.host0.wlan[0].mac rcvdPkFromLl:count 2
attr interpolationmode none
attr recordingmode count
attr source packetReceivedFromLower
attr title "packets received from lower layer, count"
scalar NoMobility.host0.wlan[0].mac rcvdPkFromLl:sum(packetBytes) 58
attr interpolationmode none
attr recordingmode sum(packetBytes)
attr source packetReceivedFromLower
attr title "packets received from lower layer, sum(packetBytes)"
scalar NoMobility.host0.wlan[0].mac sentDownPk:count 1
attr interpolationmode none
attr recordingmode count
attr source packetSentToLower
attr title "packets sent to lower layer, count"
scalar NoMobility.host0.wlan[0].mac sentDownPk:sum(packetBytes) 29
attr interpolationmode none
attr recordingmode sum(packetBytes)
attr source packetSentToLower
attr title "packets sent to lower layer, sum(packetBytes)"
scalar NoMobility.host0.wlan[0].mac rcvdPkFromHl:count 1
attr interpolationmode none
attr recordingmode count
attr source packetReceivedFromUpper
attr title "packets received from higher layer, count"
scalar NoMobility.host0.wlan[0].mac rcvdPkFromHl:sum(packetBytes) 6
attr interpolationmode none
attr recordingmode sum(packetBytes)
attr source packetReceivedFromUpper
attr title "packets received from higher layer, sum(packetBytes)"
scalar NoMobility.host0.wlan[0].mac passedUpPk:count 2
attr interpolationmode none
attr recordingmode count
attr source packetSentToUpper
attr title "packets passed to higher layer, count"
scalar NoMobility.host0.wlan[0].mac passedUpPk:sum(packetBytes) 12
attr interpolationmode none
attr recordingmode sum(packetBytes)
attr source packetSentToUpper
attr title "packets passed to higher layer, sum(packetBytes)"
scalar NoMobility.host0.wlan[0].mac packetDropIncorrectlyReceived:count 0
attr interpolationmode none
attr recordingmode count
attr source packetDropReasonIsIncorrectlyReceived(packetDropped)
attr title "packet drop: incorrectly received, count"
scalar NoMobility.host0.wlan[0].mac packetDropIncorrectlyReceived:sum(packetBytes) 0
attr interpolationmode none
attr recordingmode sum(packetBytes)
attr source packetDropReasonIsIncorrectlyReceived(packetDropped)
attr title "packet drop: incorrectly received, sum(packetBytes)"
scalar NoMobility.host0.wlan[0].mac packetDropInterfaceDown:count 0
attr interpolationmode none
attr recordingmode count
attr source packetDropReasonIsInterfaceDown(packetDropped)
attr title "packet drop: interface down, count"
scalar NoMobility.host0.wlan[0].mac packetDropInterfaceDown:sum(packetBytes) 0
attr interpolationmode none
attr recordingmode sum(packetBytes)
attr source packetDropReasonIsInterfaceDown(packetDropped)
attr title "packet drop: interface down, sum(packetBytes)"
scalar NoMobility.host0.wlan[0].mac packetDropNotAddressedToUs:count 0
attr interpolationmode none
attr recordingmode count
attr source packetDropReasonIsNotAddressedToUs(packetDropped)
attr title "packet drop: not addressed to us, count"
scalar NoMobility.host0.wlan[0].mac packetDropNotAddressedToUs:sum(packetBytes) 0
attr interpolationmode none
attr recordingmode sum(packetBytes)
attr source packetDropReasonIsNotAddressedToUs(packetDropped)
attr title "packet drop: not addressed to us, sum(packetBytes)"
scalar NoMobility.host0.wlan[0].mac linkBroken:count 0
attr interpolationmode none
attr recordingmode count
attr source linkBroken
attr title "link break, count"
par NoMobility.host0.wlan[0].radio.antenna typename "\"inet.physicallayer.wireless.common.antenna.IsotropicAntenna\""
par NoMobility.host0.wlan[0].radio.antenna mobilityModule "\"^.^.^.mobility\""
par NoMobility.host0.wlan[0].radio.antenna numAntennas 1
par NoMobility.host0.wlan[0].radio.transmitter typename "\"inet.physicallayer.wireless.unitdisk.UnitDiskTransmitter\""
par NoMobility.host0.wlan[0].radio.transmitter preambleDuration 0s
attr unit s
par NoMobility.host0.wlan[0].radio.transmitter headerLength 96b
attr unit b
par NoMobility.host0.wlan[0].radio.transmitter bitrate 2e+06bps
attr unit bps
par NoMobility.host0.wlan[0].radio.transmitter communicationRange 220m
attr unit m
par NoMobility.host0.wlan[0].radio.transmitter interferenceRange 0m
attr unit m
par NoMobility.host0.wlan[0].radio.transmitter detectionRange 0m
attr unit m
par NoMobility.host0.wlan[0].radio.receiver typename "\"inet.physicallayer.wireless.unitdisk.UnitDiskReceiver\""
par NoMobility.host0.wlan[0].radio.receiver ignoreInterference true
par NoMobility.host0.wlan[0].radio typename "\"inet.physicallayer.wireless.unitdisk.UnitDiskRadio\""
par NoMobility.host0.wlan[0].radio radioMediumModule "\"radioMedium\""
par NoMobility.host0.wlan[0].radio energySourceModule "\"\""
par NoMobility.host0.wlan[0].radio initialRadioMode "\"off\""
attr enum off,sleep,receiver,transmitter,transceiver
par NoMobility.host0.wlan[0].radio switchingTimes "\"ms 0 0 0 0 0 0 0 0 0 0 0 0 0 0 0 0 0 0 0 0 0 0 0 0 0\""
par NoMobility.host0.wlan[0].radio sendRawBytes false
par NoMobility.host0.wlan[0].radio separateTransmissionParts false
par NoMobility.host0.wlan[0].radio separateReceptionParts false
par NoMobility.host0.wlan[0].radio displayCommunicationRange false
par NoMobility.host0.wlan[0].radio displayInterferenceRange false
statistic NoMobility.host0.wlan[0].radio minSnir:histogram
field count 0
field mean nan
field stddev nan
field min nan
field max nan
field sum 0
field sqrsum 0
attr recordingmode histogram
attr source minimumSnir(packetSentToUpper)
attr title "Min SNIR"
bin	-inf	0
bin	0	0
bin	1	0
statistic NoMobility.host0.wlan[0].radio packetErrorRate:histogram
field count 2
field mean 0
field stddev 0
field min 0
field max 0
field sum 0
field sqrsum 0
attr recordingmode histogram
attr source packetErrorRate(packetSentToUpper)
attr title "Packet error rate"
bin	-inf	0
bin	-0.5	0
bin	-0.48	0
bin	-0.46	0
bin	-0.44	0
bin	-0.42	0
bin	-0.4	0
bin	-0.38	0
bin	-0.36	0
bin	-0.34	0
bin	-0.32	0
bin	-0.3	0
bin	-0.28	0
bin	-0.26	0
bin	-0.24	0
bin	-0.22	0
bin	-0.2	0
bin	-0.18	0
bin	-0.16	0
bin	-0.14	0
bin	-0.12	0
bin	-0.1	0
bin	-0.08	0
bin	-0.06	0
bin	-0.04	0
bin	-0.02	0
bin	0	2
bin	0.02	0
bin	0.04	0
bin	0.06	0
bin	0.08	0
bin	0.1	0
bin	0.12	0
bin	0.14	0
bin	0.16	0
bin	0.18	0
bin	0.2	0
bin	0.22	0
bin	0.24	0
bin	0.26	0
bin	0.28	0
bin	0.3	0
bin	0.32	0
bin	0.34	0
bin	0.36	0
bin	0.38	0
bin	0.4	0
bin	0.42	0
bin	0.44	0
bin	0.46	0
bin	0.48	0
bin	0.5	0
statistic NoMobility.host0.wlan[0].radio bitErrorRate:histogram
field count 2
field mean 0
field stddev 0
field min 0
field max 0
field sum 0
field sqrsum 0
attr recordingmode histogram
attr source bitErrorRate(packetSentToUpper)
attr title "Bit error rate"
bin	-inf	0
bin	-0.5	0
bin	-0.48	0
bin	-0.46	0
bin	-0.44	0
bin	-0.42	0
bin	-0.4	0
bin	-0.38	0
bin	-0.36	0
bin	-0.34	0
bin	-0.32	0
bin	-0.3	0
bin	-0.28	0
bin	-0.26	0
bin	-0.24	0
bin	-0.22	0
bin	-0.2	0
bin	-0.18	0
bin	-0.16	0
bin	-0.14	0
bin	-0.12	0
bin	-0.1	0
bin	-0.08	0
bin	-0.06	0
bin	-0.04	0
bin	-0.02	0
bin	0	2
bin	0.02	0
bin	0.04	0
bin	0.06	0
bin	0.08	0
bin	0.1	0
bin	0.12	0
bin	0.14	0
bin	0.16	0
bin	0.18	0
bin	0.2	0
bin	0.22	0
bin	0.24	0
bin	0.26	0
bin	0.28	0
bin	0.3	0
bin	0.32	0
bin	0.34	0
bin	0.36	0
bin	0.38	0
bin	0.4	0
bin	0.42	0
bin	0.44	0
bin	0.46	0
bin	0.48	0
bin	0.5	0
statistic NoMobility.host0.wlan[0].radio symbolErrorRate:histogram
field count 2
field mean 0
field stddev 0
field min 0
field max 0
field sum 0
field sqrsum 0
attr recordingmode histogram
attr source symbolErrorRate(packetSentToUpper)
attr title "Symbol error rate"
bin	-inf	0
bin	-0.5	0
bin	-0.48	0
bin	-0.46	0
bin	-0.44	0
bin	-0.42	0
bin	-0.4	0
bin	-0.38	0
bin	-0.36	0
bin	-0.34	0
bin	-0.32	0
bin	-0.3	0
bin	-0.28	0
bin	-0.26	0
bin	-0.24	0
bin	-0.22	0
bin	-0.2	0
bin	-0.18	0
bin	-0.16	0
bin	-0.14	0
bin	-0.12	0
bin	-0.1	0
bin	-0.08	0
bin	-0.06	0
bin	-0.04	0
bin	-0.02	0
bin	0	2
bin	0.02	0
bin	0.04	0
bin	0.06	0
bin	0.08	0
bin	0.1	0
bin	0.12	0
bin	0.14	0
bin	0.16	0
bin	0.18	0
bin	0.2	0
bin	0.22	0
bin	0.24	0
bin	0.26	0
bin	0.28	0
bin	0.3	0
bin	0.32	0
bin	0.34	0
bin	0.36	0
bin	0.38	0
bin	0.4	0
bin	0.42	0
bin	0.44	0
bin	0.46	0
bin	0.48	0
bin	0.5	0
scalar NoMobility.host0.wlan[0].radio transmissionState:count 3
attr interpolationmode sample-hold
attr recordingmode count
attr source transmissionStateChanged
attr title "Radio transmission state, count"
scalar NoMobility.host0.wlan[0].radio receptionState:count 6
attr interpolationmode sample-hold
attr recordingmode count
attr source receptionStateChanged
attr title "Radio reception state, count"
scalar NoMobility.host0.wlan[0].radio radioMode:count 3
attr interpolationmode sample-hold
attr recordingmode count
attr source radioModeChanged
attr title "Radio mode, count"
par NoMobility.host0.wlan[0] typename "\"inet.linklayer.acking.AckingWirelessInterface\""
par NoMobility.host0.wlan[0] displayStringTextFormat "\"%a (%i)\\n%m\""
par NoMobility.host0.wlan[0] recordPcap false
par NoMobility.host0.wlan[0] numPcapRecorders 0
par NoMobility.host0.wlan[0] interfaceTableModule "\"NoMobility.host0.interfaceTable\""
par NoMobility.host0.wlan[0] energySourceModule "\"\""
par NoMobility.host0.wlan[0] bitrate 2e+06bps
attr unit bps
scalar NoMobility.host0.wlan[0] packetDropInterfaceDown:count 0
attr interpolationmode none
attr recordingmode count
attr source packetDropReasonIsInterfaceDown(packetDropped)
attr title "packet drops: interface down, count"
scalar NoMobility.host0.wlan[0] packetDropInterfaceDown:sum(packetBytes) 0
attr interpolationmode none
attr recordingmode sum(packetBytes)
attr source packetDropReasonIsInterfaceDown(packetDropped)
attr title "packet drops: interface down, sum(packetBytes)"
scalar NoMobility.host0.wlan[0] packetDropNoCarrier:count 0
attr interpolationmode none
attr recordingmode count
attr source packetDropReasonIsNoCarrier(packetDropped)
attr title "packet drops: no carrier, count"
scalar NoMobility.host0.wlan[0] packetDropNoCarrier:sum(packetBytes) 0
attr interpolationmode none
attr recordingmode sum(packetBytes)
attr source packetDropReasonIsNoCarrier(packetDropped)
attr title "packet drops: no carrier, sum(packetBytes)"
par NoMobility.host0.generic.transportIn.channel typename "\"ned.IdealChannel\""
par NoMobility.host0.generic.np.transportOut.channel typename "\"ned.IdealChannel\""
par NoMobility.host0.generic.np typename "\"fadip.FadipNetworkProtocol\""
par NoMobility.host0.generic.np hcMaxSubscribe 3
par NoMobility.host0.generic.np hcMaxPublish 3
par NoMobility.host0.generic.np wlanInterfaceModule "\"^.^.wlan[0]\""
par NoMobility.host0.generic.np interfaceTableModule "\"NoMobility.host0.generic.np.^.^.interfaceTable\""
par NoMobility.host0.generic typename "\"fadip.FadipNetworkLayer\""
par NoMobility.host0.nl typename "\"inet.common.MessageDispatcher\""
par NoMobility.host0.nl displayStringTextFormat "\"processed %p pk (%l)\""
par NoMobility.host0.nl forwardServiceRegistration true
par NoMobility.host0.nl forwardProtocolRegistration true
par NoMobility.host0.tn typename "\"inet.common.MessageDispatcher\""
par NoMobility.host0.tn displayStringTextFormat "\"processed %p pk (%l)\""
par NoMobility.host0.tn forwardServiceRegistration true
par NoMobility.host0.tn forwardProtocolRegistration true
par NoMobility.host0.app[0] typename "\"fadip.apps.FadipSink\""
par NoMobility.host0.app[0] topic "\"Test\""
par NoMobility.host0.at typename "\"inet.common.MessageDispatcher\""
par NoMobility.host0.at displayStringTextFormat "\"processed %p pk (%l)\""
par NoMobility.host0.at forwardServiceRegistration true
par NoMobility.host0.at forwardProtocolRegistration true
par NoMobility.host0 typename "\"fadip.FadipDevice\""
par NoMobility.host0 hasStatus false
par NoMobility.host0 osgModel "\"\""
par NoMobility.host0 osgModelColor "\"\""
par NoMobility.host0 canvasImage "\"\""
par NoMobility.host0 canvasImageColor "\"\""
par NoMobility.host0 recordPcap false
par NoMobility.host0 numPcapRecorders 0
par NoMobility.host0 numLoInterfaces 1
par NoMobility.host0 numWlanInterfaces 1
par NoMobility.host0 numEthInterfaces 0
par NoMobility.host0 numPppInterfaces 0
par NoMobility.host0 numTunInterfaces 0
par NoMobility.host0 numVirtInterfaces 0
par NoMobility.host0 fcsMode "\"declared\""
attr enum declared,computed
par NoMobility.host0 hasIpv4 false
par NoMobility.host0 hasIpv6 false
par NoMobility.host0 hasGn true
par NoMobility.host0 forwarding true
par NoMobility.host0 multicastForwarding false
par NoMobility.host0 hasUdp false
par NoMobility.host0 hasTcp false
par NoMobility.host0 hasSctp false
par NoMobility.host0 numApps 1
par NoMobility.host1.radioIn[0].channel typename "\"ned.IdealChannel\""
par NoMobility.host1.mobility typename "\"inet.mobility.static.StationaryMobility\""
par NoMobility.host1.mobility subjectModule "\"^\""
par NoMobility.host1.mobility coordinateSystemModule "\"\""
par NoMobility.host1.mobility displayStringTextFormat "\"p: %p\\nv: %v\""
attr mutable ""
par NoMobility.host1.mobility updateDisplayString true
par NoMobility.host1.mobility constraintAreaMinX 0m
attr unit m
par NoMobility.host1.mobility constraintAreaMinY 0m
attr unit m
par NoMobility.host1.mobility constraintAreaMinZ 0m
attr unit m
par NoMobility.host1.mobility constraintAreaMaxX 1800m
attr unit m
par NoMobility.host1.mobility constraintAreaMaxY 1000m
attr unit m
par NoMobility.host1.mobility constraintAreaMaxZ 0m
attr unit m
par NoMobility.host1.mobility initialX 1519.68m
attr unit m
par NoMobility.host1.mobility initialY 602.763m
attr unit m
par NoMobility.host1.mobility initialZ 0m
attr unit m
par NoMobility.host1.mobility initialLatitude "nan deg"
attr unit deg
par NoMobility.host1.mobility initialLongitude "nan deg"
attr unit deg
par NoMobility.host1.mobility initialAltitude 0m
attr unit m
par NoMobility.host1.mobility initialHeading 0deg
attr unit deg
par NoMobility.host1.mobility initialElevation 0deg
attr unit deg
par NoMobility.host1.mobility initialBank 0deg
attr unit deg
par NoMobility.host1.mobility initFromDisplayString true
par NoMobility.host1.mobility updateFromDisplayString true
par NoMobility.host1.interfaceTable typename "\"inet.networklayer.common.InterfaceTable\""
par NoMobility.host1.interfaceTable displayAddresses false
par NoMobility.host1.cb typename "\"inet.common.MessageDispatcher\""
par NoMobility.host1.cb displayStringTextFormat "\"processed %p pk (%l)\""
par NoMobility.host1.cb forwardServiceRegistration true
par NoMobility.host1.cb forwardProtocolRegistration true
par NoMobility.host1.bl typename "\"inet.common.MessageDispatcher\""
par NoMobility.host1.bl displayStringTextFormat "\"processed %p pk (%l)\""
par NoMobility.host1.bl forwardServiceRegistration true
par NoMobility.host1.bl forwardProtocolRegistration true
par NoMobility.host1.li typename "\"inet.common.MessageDispatcher\""
par NoMobility.host1.li displayStringTextFormat "\"processed %p pk (%l)\""
par NoMobility.host1.li forwardServiceRegistration true
par NoMobility.host1.li forwardProtocolRegistration true
par NoMobility.host1.lo[0].upperLayerIn.channel typename "\"ned.IdealChannel\""
par NoMobility.host1.lo[0].lo.upperLayerOut.channel typename "\"ned.IdealChannel\""
par NoMobility.host1.lo[0].lo typename "\"inet.linklayer.loopback.Loopback\""
par NoMobility.host1.lo[0].lo interfaceTableModule "\"NoMobility.host1.interfaceTable\""
par NoMobility.host1.lo[0].lo mtu 4470B
attr unit B
scalar NoMobility.host1.lo[0].lo rcvdPkFromHl:count 0
attr interpolationmode none
attr recordingmode count
attr source packetReceivedFromUpper
attr title "packets received from higher layer, count"
scalar NoMobility.host1.lo[0].lo rcvdPkFromHl:sum(packetBytes) 0
attr interpolationmode none
attr recordingmode sum(packetBytes)
attr source packetReceivedFromUpper
attr title "packets received from higher layer, sum(packetBytes)"
scalar NoMobility.host1.lo[0].lo passedUpPk:count 0
attr interpolationmode none
attr recordingmode count
attr source packetSentToUpper
attr title "packets passed to higher layer, count"
scalar NoMobility.host1.lo[0].lo passedUpPk:sum(packetBytes) 0
attr interpolationmode none
attr recordingmode sum(packetBytes)
attr source packetSentToUpper
attr title "packets passed to higher layer, sum(packetBytes)"
par NoMobility.host1.lo[0] typename "\"inet.linklayer.loopback.LoopbackInterface\""
par NoMobility.host1.lo[0] displayStringTextFormat "\"%a (%i)\\n%m\""
par NoMobility.host1.lo[0] recordPcap false
par NoMobility.host1.lo[0] numPcapRecorders 0
par NoMobility.host1.lo[0] interfaceTableModule "\"NoMobility.host1.interfaceTable\""
[...]
attr title "packet drops: interface down, sum(packetBytes)"
scalar NoMobility.host7.lo[0] packetDropNoCarrier:count 0
attr interpolationmode none
attr recordingmode count
attr source packetDropReasonIsNoCarrier(packetDropped)
attr title "packet drops: no carrier, count"
scalar NoMobility.host7.lo[0] packetDropNoCarrier:sum(packetBytes) 0
attr interpolationmode none
attr recordingmode sum(packetBytes)
attr source packetDropReasonIsNoCarrier(packetDropped)
attr title "packet drops: no carrier, sum(packetBytes)"
par NoMobility.host7.wlan[0].upperLayerIn.channel typename "\"ned.IdealChannel\""
par NoMobility.host7.wlan[0].radioIn.channel typename "\"ned.IdealChannel\""
par NoMobility.host7.wlan[0].mac.upperLayerOut.channel typename "\"ned.IdealChannel\""
par NoMobility.host7.wlan[0].queue typename "\"inet.queueing.queue.DropTailQueue\""
par NoMobility.host7.wlan[0].queue displayStringTextFormat "\"contains %p pk (%l) pushed %u\\npulled %o removed %r dropped %d\""
par NoMobility.host7.wlan[0].queue packetCapacity 100
par NoMobility.host7.wlan[0].queue dataCapacity -1b
attr unit b
par NoMobility.host7.wlan[0].queue dropperClass "\"inet::queueing::PacketAtCollectionEndDropper\""
par NoMobility.host7.wlan[0].queue comparatorClass "\"\""
par NoMobility.host7.wlan[0].queue bufferModule "\"\""
scalar NoMobility.host7.wlan[0].queue queueLength:last 0
attr autoWarmupFilter false
attr interpolationmode sample-hold
attr recordingmode last
attr source "warmup(atomic(constant0(packetPushEnded) + count(packetPushStarted) - count(packetPulled) - count(packetRemoved) - count(packetDropped)))"
attr title "queue length, last"
attr unit pk
scalar NoMobility.host7.wlan[0].queue queueLength:max 0
attr autoWarmupFilter false
attr interpolationmode sample-hold
attr recordingmode max
attr source "warmup(atomic(constant0(packetPushEnded) + count(packetPushStarted) - count(packetPulled) - count(packetRemoved) - count(packetDropped)))"
attr title "queue length, max"
attr unit pk
scalar NoMobility.host7.wlan[0].queue queueLength:timeavg 0
attr autoWarmupFilter false
attr interpolationmode sample-hold
attr recordingmode timeavg
attr source "warmup(atomic(constant0(packetPushEnded) + count(packetPushStarted) - count(packetPulled) - count(packetRemoved) - count(packetDropped)))"
attr title "queue length, timeavg"
attr unit pk
scalar NoMobility.host7.wlan[0].queue queueBitLength:last 0
attr autoWarmupFilter false
attr interpolationmode sample-hold
attr recordingmode last
attr source "warmup(atomic(constant0(packetPushEnded) + sum(packetLength(packetPushStarted)) - sum(packetLength(packetPulled)) - sum(packetLength(packetRemoved)) - sum(packetLength(packetDropped))))"
attr title "queue bit length, last"
attr unit b
scalar NoMobility.host7.wlan[0].queue queueBitLength:max 0
attr autoWarmupFilter false
attr interpolationmode sample-hold
attr recordingmode max
attr source "warmup(atomic(constant0(packetPushEnded) + sum(packetLength(packetPushStarted)) - sum(packetLength(packetPulled)) - sum(packetLength(packetRemoved)) - sum(packetLength(packetDropped))))"
attr title "queue bit length, max"
attr unit b
scalar NoMobility.host7.wlan[0].queue queueBitLength:timeavg 0
attr autoWarmupFilter false
attr interpolationmode sample-hold
attr recordingmode timeavg
attr source "warmup(atomic(constant0(packetPushEnded) + sum(packetLength(packetPushStarted)) - sum(packetLength(packetPulled)) - sum(packetLength(packetRemoved)) - sum(packetLength(packetDropped))))"
attr title "queue bit length, timeavg"
attr unit b
statistic NoMobility.host7.wlan[0].queue queueingTime:histogram
field count 2
field mean 0
field stddev 0
field min 0
field max 0
field sum 0
field sqrsum 0
attr interpolationmode none
attr recordingmode histogram
attr source queueingTime(packetPulled)
attr title "queueing times"
attr unit s
bin	-inf	0
bin	-0.5	0
bin	-0.48	0
bin	-0.46	0
bin	-0.44	0
bin	-0.42	0
bin	-0.4	0
bin	-0.38	0
bin	-0.36	0
bin	-0.34	0
bin	-0.32	0
bin	-0.3	0
bin	-0.28	0
bin	-0.26	0
bin	-0.24	0
bin	-0.22	0
bin	-0.2	0
bin	-0.18	0
bin	-0.16	0
bin	-0.14	0
bin	-0.12	0
bin	-0.1	0
bin	-0.08	0
bin	-0.06	0
bin	-0.04	0
bin	-0.02	0
bin	0	2
bin	0.02	0
bin	0.04	0
bin	0.06	0
bin	0.08	0
bin	0.1	0
bin	0.12	0
bin	0.14	0
bin	0.16	0
bin	0.18	0
bin	0.2	0
bin	0.22	0
bin	0.24	0
bin	0.26	0
bin	0.28	0
bin	0.3	0
bin	0.32	0
bin	0.34	0
bin	0.36	0
bin	0.38	0
bin	0.4	0
bin	0.42	0
bin	0.44	0
bin	0.46	0
bin	0.48	0
bin	0.5	0
scalar NoMobility.host7.wlan[0].queue outgoingPackets:count 2
attr recordingmode count
attr source packetPulled
attr title "outgoing packets, count"
attr unit pk
scalar NoMobility.host7.wlan[0].queue outgoingPacketLengths:sum 96
attr interpolationmode none
attr recordingmode sum
attr source packetLength(packetPulled)
attr title "outgoing packet lengths, sum"
attr unit b
statistic NoMobility.host7.wlan[0].queue outgoingPacketLengths:histogram
field count 2
field mean 48
field stddev 0
field min 48
field max 48
field sum 96
field sqrsum 4608
attr interpolationmode none
attr recordingmode histogram
attr source packetLength(packetPulled)
attr title "outgoing packet lengths"
attr unit b
bin	-inf	0
bin	47	0
bin	48	2
bin	49	0
statistic NoMobility.host7.wlan[0].queue flowQueueingTime:histogram
field count 0
field mean nan
field stddev nan
field min nan
field max nan
field sum 0
field sqrsum 0
attr interpolationmode none
attr recordingmode histogram
attr source queueingTime(demuxFlow(packetPulled))
attr title "flow queueing times"
attr unit s
bin	-inf	0
bin	0	0
bin	1	0
scalar NoMobility.host7.wlan[0].queue incomingPackets:count 2
attr recordingmode count
attr source packetPushStarted
attr title "incoming packets, count"
attr unit pk
scalar NoMobility.host7.wlan[0].queue incomingPacketLengths:sum 96
attr interpolationmode none
attr recordingmode sum
attr source packetLength(packetPushStarted)
attr title "incoming packet lengths, sum"
attr unit b
statistic NoMobility.host7.wlan[0].queue incomingPacketLengths:histogram
field count 2
field mean 48
field stddev 0
field min 48
field max 48
field sum 96
field sqrsum 4608
attr interpolationmode none
attr recordingmode histogram
attr source packetLength(packetPushStarted)
attr title "incoming packet lengths"
attr unit b
bin	-inf	0
bin	47	0
bin	48	2
bin	49	0
scalar NoMobility.host7.wlan[0].queue droppedPacketsQueueOverflow:count 0
attr interpolationmode none
attr recordingmode count
attr source packetDropReasonIsQueueOverflow(packetDropped)
attr title "dropped packets: queue overflow, count"
attr unit pk
scalar NoMobility.host7.wlan[0].queue droppedPacketLengthsQueueOverflow:sum 0
attr interpolationmode none
attr recordingmode sum
attr source packetLength(packetDropReasonIsQueueOverflow(packetDropped))
attr title "dropped packet lengths: queue overflow, sum"
attr unit b
par NoMobility.host7.wlan[0].mac typename "\"inet.linklayer.acking.AckingMac\""
par NoMobility.host7.wlan[0].mac interfaceTableModule "\"NoMobility.host7.interfaceTable\""
par NoMobility.host7.wlan[0].mac address "\"auto\""
attr mutable ""
par NoMobility.host7.wlan[0].mac bitrate 2e+06bps
attr unit bps
par NoMobility.host7.wlan[0].mac mtu 4470B
attr unit B
par NoMobility.host7.wlan[0].mac headerLength 23B
attr unit B
par NoMobility.host7.wlan[0].mac promiscuous false
par NoMobility.host7.wlan[0].mac fullDuplex true
par NoMobility.host7.wlan[0].mac useAck true
par NoMobility.host7.wlan[0].mac ackTimeout 0.1s
attr unit s
scalar NoMobility.host7.wlan[0].mac rcvdPkFromLl:count 3
attr interpolationmode none
attr recordingmode count
attr source packetReceivedFromLower
attr title "packets received from lower layer, count"
scalar NoMobility.host7.wlan[0].mac rcvdPkFromLl:sum(packetBytes) 87
attr interpolationmode none
attr recordingmode sum(packetBytes)
attr source packetReceivedFromLower
attr title "packets received from lower layer, sum(packetBytes)"
scalar NoMobility.host7.wlan[0].mac sentDownPk:count 2
attr interpolationmode none
attr recordingmode count
attr source packetSentToLower
attr title "packets sent to lower layer, count"
scalar NoMobility.host7.wlan[0].mac sentDownPk:sum(packetBytes) 58
attr interpolationmode none
attr recordingmode sum(packetBytes)
attr source packetSentToLower
attr title "packets sent to lower layer, sum(packetBytes)"
scalar NoMobility.host7.wlan[0].mac rcvdPkFromHl:count 2
attr interpolationmode none
attr recordingmode count
attr source packetReceivedFromUpper
attr title "packets received from higher layer, count"
scalar NoMobility.host7.wlan[0].mac rcvdPkFromHl:sum(packetBytes) 12
attr interpolationmode none
attr recordingmode sum(packetBytes)
attr source packetReceivedFromUpper
attr title "packets received from higher layer, sum(packetBytes)"
scalar NoMobility.host7.wlan[0].mac passedUpPk:count 3
attr interpolationmode none
attr recordingmode count
attr source packetSentToUpper
attr title "packets passed to higher layer, count"
scalar NoMobility.host7.wlan[0].mac passedUpPk:sum(packetBytes) 18
attr interpolationmode none
attr recordingmode sum(packetBytes)
attr source packetSentToUpper
attr title "packets passed to higher layer, sum(packetBytes)"
scalar NoMobility.host7.wlan[0].mac packetDropIncorrectlyReceived:count 0
attr interpolationmode none
attr recordingmode count
attr source packetDropReasonIsIncorrectlyReceived(packetDropped)
attr title "packet drop: incorrectly received, count"
scalar NoMobility.host7.wlan[0].mac packetDropIncorrectlyReceived:sum(packetBytes) 0
attr interpolationmode none
attr recordingmode sum(packetBytes)
attr source packetDropReasonIsIncorrectlyReceived(packetDropped)
attr title "packet drop: incorrectly received, sum(packetBytes)"
scalar NoMobility.host7.wlan[0].mac packetDropInterfaceDown:count 0
attr interpolationmode none
attr recordingmode count
attr source packetDropReasonIsInterfaceDown(packetDropped)
attr title "packet drop: interface down, count"
scalar NoMobility.host7.wlan[0].mac packetDropInterfaceDown:sum(packetBytes) 0
attr interpolationmode none
attr recordingmode sum(packetBytes)
attr source packetDropReasonIsInterfaceDown(packetDropped)
attr title "packet drop: interface down, sum(packetBytes)"
scalar NoMobility.host7.wlan[0].mac packetDropNotAddressedToUs:count 0
attr interpolationmode none
attr recordingmode count
attr source packetDropReasonIsNotAddressedToUs(packetDropped)
attr title "packet drop: not addressed to us, count"
scalar NoMobility.host7.wlan[0].mac packetDropNotAddressedToUs:sum(packetBytes) 0
attr interpolationmode none
attr recordingmode sum(packetBytes)
attr source packetDropReasonIsNotAddressedToUs(packetDropped)
attr title "packet drop: not addressed to us, sum(packetBytes)"
scalar NoMobility.host7.wlan[0].mac linkBroken:count 0
attr interpolationmode none
attr recordingmode count
attr source linkBroken
attr title "link break, count"
par NoMobility.host7.wlan[0].radio.antenna typename "\"inet.physicallayer.wireless.common.antenna.IsotropicAntenna\""
par NoMobility.host7.wlan[0].radio.antenna mobilityModule "\"^.^.^.mobility\""
par NoMobility.host7.wlan[0].radio.antenna numAntennas 1
par NoMobility.host7.wlan[0].radio.transmitter typename "\"inet.physicallayer.wireless.unitdisk.UnitDiskTransmitter\""
par NoMobility.host7.wlan[0].radio.transmitter preambleDuration 0s
attr unit s
par NoMobility.host7.wlan[0].radio.transmitter headerLength 96b
attr unit b
par NoMobility.host7.wlan[0].radio.transmitter bitrate 2e+06bps
attr unit bps
par NoMobility.host7.wlan[0].radio.transmitter communicationRange 220m
attr unit m
par NoMobility.host7.wlan[0].radio.transmitter interferenceRange 0m
attr unit m
par NoMobility.host7.wlan[0].radio.transmitter detectionRange 0m
attr unit m
par NoMobility.host7.wlan[0].radio.receiver typename "\"inet.physicallayer.wireless.unitdisk.UnitDiskReceiver\""
par NoMobility.host7.wlan[0].radio.receiver ignoreInterference true
par NoMobility.host7.wlan[0].radio typename "\"inet.physicallayer.wireless.unitdisk.UnitDiskRadio\""
par NoMobility.host7.wlan[0].radio radioMediumModule "\"radioMedium\""
par NoMobility.host7.wlan[0].radio energySourceModule "\"\""
par NoMobility.host7.wlan[0].radio initialRadioMode "\"off\""
attr enum off,sleep,receiver,transmitter,transceiver
par NoMobility.host7.wlan[0].radio switchingTimes "\"ms 0 0 0 0 0 0 0 0 0 0 0 0 0 0 0 0 0 0 0 0 0 0 0 0 0\""
par NoMobility.host7.wlan[0].radio sendRawBytes false
par NoMobility.host7.wlan[0].radio separateTransmissionParts false
par NoMobility.host7.wlan[0].radio separateReceptionParts false
par NoMobility.host7.wlan[0].radio displayCommunicationRange false
par NoMobility.host7.wlan[0].radio displayInterferenceRange false
statistic NoMobility.host7.wlan[0].radio minSnir:histogram
field count 0
field mean nan
field stddev nan
field min nan
field max nan
field sum 0
field sqrsum 0
attr recordingmode histogram
attr source minimumSnir(packetSentToUpper)
attr title "Min SNIR"
bin	-inf	0
bin	0	0
bin	1	0
statistic NoMobility.host7.wlan[0].radio packetErrorRate:histogram
field count 3
field mean 0
field stddev 0
field min 0
field max 0
field sum 0
field sqrsum 0
attr recordingmode histogram
attr source packetErrorRate(packetSentToUpper)
attr title "Packet error rate"
bin	-inf	0
bin	-0.5	0
bin	-0.48	0
bin	-0.46	0
bin	-0.44	0
bin	-0.42	0
bin	-0.4	0
bin	-0.38	0
bin	-0.36	0
bin	-0.34	0
bin	-0.32	0
bin	-0.3	0
bin	-0.28	0
bin	-0.26	0
bin	-0.24	0
bin	-0.22	0
bin	-0.2	0
bin	-0.18	0
bin	-0.16	0
bin	-0.14	0
bin	-0.12	0
bin	-0.1	0
bin	-0.08	0
bin	-0.06	0
bin	-0.04	0
bin	-0.02	0
bin	0	3
bin	0.02	0
bin	0.04	0
bin	0.06	0
bin	0.08	0
bin	0.1	0
bin	0.12	0
bin	0.14	0
bin	0.16	0
bin	0.18	0
bin	0.2	0
bin	0.22	0
bin	0.24	0
bin	0.26	0
bin	0.28	0
bin	0.3	0
bin	0.32	0
bin	0.34	0
bin	0.36	0
bin	0.38	0
bin	0.4	0
bin	0.42	0
bin	0.44	0
bin	0.46	0
bin	0.48	0
bin	0.5	0
statistic NoMobility.host7.wlan[0].radio bitErrorRate:histogram
field count 3
field mean 0
field stddev 0
field min 0
field max 0
field sum 0
field sqrsum 0
attr recordingmode histogram
attr source bitErrorRate(packetSentToUpper)
attr title "Bit error rate"
bin	-inf	0
bin	-0.5	0
bin	-0.48	0
bin	-0.46	0
bin	-0.44	0
bin	-0.42	0
bin	-0.4	0
bin	-0.38	0
bin	-0.36	0
bin	-0.34	0
bin	-0.32	0
bin	-0.3	0
bin	-0.28	0
bin	-0.26	0
bin	-0.24	0
bin	-0.22	0
bin	-0.2	0
bin	-0.18	0
bin	-0.16	0
bin	-0.14	0
bin	-0.12	0
bin	-0.1	0
bin	-0.08	0
bin	-0.06	0
bin	-0.04	0
bin	-0.02	0
bin	0	3
bin	0.02	0
bin	0.04	0
bin	0.06	0
bin	0.08	0
bin	0.1	0
bin	0.12	0
bin	0.14	0
bin	0.16	0
bin	0.18	0
bin	0.2	0
bin	0.22	0
bin	0.24	0
bin	0.26	0
bin	0.28	0
bin	0.3	0
bin	0.32	0
bin	0.34	0
bin	0.36	0
bin	0.38	0
bin	0.4	0
bin	0.42	0
bin	0.44	0
bin	0.46	0
bin	0.48	0
bin	0.5	0
statistic NoMobility.host7.wlan[0].radio symbolErrorRate:histogram
field count 3
field mean 0
field stddev 0
field min 0
field max 0
field sum 0
field sqrsum 0
attr recordingmode histogram
attr source symbolErrorRate(packetSentToUpper)
attr title "Symbol error rate"
bin	-inf	0
bin	-0.5	0
bin	-0.48	0
bin	-0.46	0
bin	-0.44	0
bin	-0.42	0
bin	-0.4	0
bin	-0.38	0
bin	-0.36	0
bin	-0.34	0
bin	-0.32	0
bin	-0.3	0
bin	-0.28	0
bin	-0.26	0
bin	-0.24	0
bin	-0.22	0
bin	-0.2	0
bin	-0.18	0
bin	-0.16	0
bin	-0.14	0
bin	-0.12	0
bin	-0.1	0
bin	-0.08	0
bin	-0.06	0
bin	-0.04	0
bin	-0.02	0
bin	0	3
bin	0.02	0
bin	0.04	0
bin	0.06	0
bin	0.08	0
bin	0.1	0
bin	0.12	0
bin	0.14	0
bin	0.16	0
bin	0.18	0
bin	0.2	0
bin	0.22	0
bin	0.24	0
bin	0.26	0
bin	0.28	0
bin	0.3	0
bin	0.32	0
bin	0.34	0
bin	0.36	0
bin	0.38	0
bin	0.4	0
bin	0.42	0
bin	0.44	0
bin	0.46	0
bin	0.48	0
bin	0.5	0
scalar NoMobility.host7.wlan[0].radio transmissionState:count 5
attr interpolationmode sample-hold
attr recordingmode count
attr source transmissionStateChanged
attr title "Radio transmission state, count"
scalar NoMobility.host7.wlan[0].radio receptionState:count 8
attr interpolationmode sample-hold
attr recordingmode count
attr source receptionStateChanged
attr title "Radio reception state, count"
scalar NoMobility.host7.wlan[0].radio radioMode:count 3
attr interpolationmode sample-hold
attr recordingmode count
attr source radioModeChanged
attr title "Radio mode, count"
par NoMobility.host7.wlan[0] typename "\"inet.linklayer.acking.AckingWirelessInterface\""
par NoMobility.host7.wlan[0] displayStringTextFormat "\"%a (%i)\\n%m\""
par NoMobility.host7.wlan[0] recordPcap false
par NoMobility.host7.wlan[0] numPcapRecorders 0
par NoMobility.host7.wlan[0] interfaceTableModule "\"NoMobility.host7.interfaceTable\""
par NoMobility.host7.wlan[0] energySourceModule "\"\""
par NoMobility.host7.wlan[0] bitrate 2e+06bps
attr unit bps
scalar NoMobility.host7.wlan[0] packetDropInterfaceDown:count 0
attr interpolationmode none
attr recordingmode count
attr source packetDropReasonIsInterfaceDown(packetDropped)
attr title "packet drops: interface down, count"
scalar NoMobility.host7.wlan[0] packetDropInterfaceDown:sum(packetBytes) 0
attr interpolationmode none
attr recordingmode sum(packetBytes)
attr source packetDropReasonIsInterfaceDown(packetDropped)
attr title "packet drops: interface down, sum(packetBytes)"
scalar NoMobility.host7.wlan[0] packetDropNoCarrier:count 0
attr interpolationmode none
attr recordingmode count
attr source packetDropReasonIsNoCarrier(packetDropped)
attr title "packet drops: no carrier, count"
scalar NoMobility.host7.wlan[0] packetDropNoCarrier:sum(packetBytes) 0
attr interpolationmode none
attr recordingmode sum(packetBytes)
attr source packetDropReasonIsNoCarrier(packetDropped)
attr title "packet drops: no carrier, sum(packetBytes)"
par NoMobility.host7.generic.transportIn.channel typename "\"ned.IdealChannel\""
par NoMobility.host7.generic.np.transportOut.channel typename "\"ned.IdealChannel\""
par NoMobility.host7.generic.np typename "\"fadip.FadipNetworkProtocol\""
par NoMobility.host7.generic.np hcMaxSubscribe 3
par NoMobility.host7.generic.np hcMaxPublish 3
par NoMobility.host7.generic.np wlanInterfaceModule "\"^.^.wlan[0]\""
par NoMobility.host7.generic.np interfaceTableModule "\"NoMobility.host7.generic.np.^.^.interfaceTable\""
par NoMobility.host7.generic typename "\"fadip.FadipNetworkLayer\""
par NoMobility.host7.nl typename "\"inet.common.MessageDispatcher\""
par NoMobility.host7.nl displayStringTextFormat "\"processed %p pk (%l)\""
par NoMobility.host7.nl forwardServiceRegistration true
par NoMobility.host7.nl forwardProtocolRegistration true
par NoMobility.host7.tn typename "\"inet.common.MessageDispatcher\""
par NoMobility.host7.tn displayStringTextFormat "\"processed %p pk (%l)\""
par NoMobility.host7.tn forwardServiceRegistration true
par NoMobility.host7.tn forwardProtocolRegistration true
par NoMobility.host7.app[0] typename "\"fadip.apps.FadipSourceApp\""
par NoMobility.host7.app[0] topic "\"Test\""
par NoMobility.host7.app[0] delay 0.4
par NoMobility.host7.at typename "\"inet.common.MessageDispatcher\""
par NoMobility.host7.at displayStringTextFormat "\"processed %p pk (%l)\""
par NoMobility.host7.at forwardServiceRegistration true
par NoMobility.host7.at forwardProtocolRegistration true
par NoMobility.host7 typename "\"fadip.FadipDevice\""
par NoMobility.host7 hasStatus false
par NoMobility.host7 osgModel "\"\""
par NoMobility.host7 osgModelColor "\"\""
par NoMobility.host7 canvasImage "\"\""
par NoMobility.host7 canvasImageColor "\"\""
par NoMobility.host7 recordPcap false
par NoMobility.host7 numPcapRecorders 0
par NoMobility.host7 numLoInterfaces 1
par NoMobility.host7 numWlanInterfaces 1
par NoMobility.host7 numEthInterfaces 0
par NoMobility.host7 numPppInterfaces 0
par NoMobility.host7 numTunInterfaces 0
par NoMobility.host7 numVirtInterfaces 0
par NoMobility.host7 fcsMode "\"declared\""
attr enum declared,computed
par NoMobility.host7 hasIpv4 false
par NoMobility.host7 hasIpv6 false
par NoMobility.host7 hasGn true
par NoMobility.host7 forwarding true
par NoMobility.host7 multicastForwarding false
par NoMobility.host7 hasUdp false
par NoMobility.host7 hasTcp false
par NoMobility.host7 hasSctp false
par NoMobility.host7 numApps 1
par NoMobility typename "\"fadip.simulations.NoMobility.NoMobility\""
par NoMobility hcMaxSubscribe 3
par NoMobility hcMaxPublish 3

