version 3
run General-3-20241229-16:51:25-13100
attr configname General
attr datetime 20241229-16:51:25
attr datetimef 20241229-165125
attr experiment General
attr inifile omnetpp.ini
attr iterationvars ""
attr iterationvarsd ""
attr iterationvarsf ""
attr measurement ""
attr network Sample
attr processid 13100
attr repetition 3
attr replication #3
attr resultdir results
attr runnumber 3
attr seedset 3
config image-path ../../../inet4.5/images
config network Sample
config *.numHosts 150
config *.hcMaxPublish 4
config *.hcMaxSubscribe 4
config **.constraintAreaMinX 0m
config **.constraintAreaMinY 0m
config **.constraintAreaMinZ 0m
config **.constraintAreaMaxX 1500m
config **.constraintAreaMaxY 1000m
config **.constraintAreaMaxZ 0m
config **.physicalLinkVisualizer.displayLinks true
config **.host*.mobility.typename RandomWaypointMobility
config **.host*.mobility.initFromDisplayString false
config **.host*.mobility.speed 1mps
config **.host*.mobility.updateInterval 100ms
config **.wlan[*].typename AckingWirelessInterface
config **.wlan[*].bitrate 2Mbps
config **.wlan[*].mac.headerLength 23B
config **.wlan[*].radio.typename UnitDiskRadio
config **.wlan[*].radio.transmitter.headerLength 96b
config **.wlan[*].radio.transmitter.interferenceRange 0m
config **.wlan[*].radio.transmitter.detectionRange 0m
config **.wlan[*].radio.receiver.ignoreInterference true
config **.wlan[*].radio.transmitter.communicationRange 220m
config *.host[0].numApps 1
config *.host[0].app*.typename FadipSink
config *.host[1..49].numApps 1
config *.host[1..49].app*.typename FadipSourceApp
config repeat 4
config **.app*.delay "uniform(1, 5)"
config **.topic "\"Test\""

par Sample.visualizer.sceneVisualizer typename "\"inet.visualizer.canvas.scene.SceneCanvasVisualizer\""
par Sample.visualizer.sceneVisualizer visualizationTargetModule "\"^.^\""
par Sample.visualizer.sceneVisualizer visualizationSubjectModule "\"^.^\""
par Sample.visualizer.sceneVisualizer tags "\"\""
par Sample.visualizer.sceneVisualizer physicalEnvironmentModule "\"physicalEnvironment\""
par Sample.visualizer.sceneVisualizer networkNodeVisualizerModule "\"^.networkNodeVisualizer\""
par Sample.visualizer.sceneVisualizer axisLength "nan m"
attr mutable ""
attr unit m
par Sample.visualizer.sceneVisualizer animationSpeed 0
par Sample.visualizer.sceneVisualizer sceneMinX "nan m"
attr unit m
par Sample.visualizer.sceneVisualizer sceneMinY "nan m"
attr unit m
par Sample.visualizer.sceneVisualizer sceneMinZ "nan m"
attr unit m
par Sample.visualizer.sceneVisualizer sceneMaxX "nan m"
attr unit m
par Sample.visualizer.sceneVisualizer sceneMaxY "nan m"
attr unit m
par Sample.visualizer.sceneVisualizer sceneMaxZ "nan m"
attr unit m
par Sample.visualizer.sceneVisualizer zIndex 0
par Sample.visualizer.sceneVisualizer viewAngle "\"x right y down z out\""
attr mutable ""
par Sample.visualizer.sceneVisualizer viewScale "\"1 1\""
attr mutable ""
par Sample.visualizer.sceneVisualizer viewTranslation "\"0 0\""
attr mutable ""
par Sample.visualizer.sceneVisualizer descriptionFigure "\"\""
par Sample.visualizer.physicalEnvironmentVisualizer typename "\"inet.visualizer.canvas.environment.PhysicalEnvironmentCanvasVisualizer\""
par Sample.visualizer.physicalEnvironmentVisualizer visualizationTargetModule "\"^.^\""
par Sample.visualizer.physicalEnvironmentVisualizer visualizationSubjectModule "\"^.^\""
par Sample.visualizer.physicalEnvironmentVisualizer tags "\"\""
par Sample.visualizer.physicalEnvironmentVisualizer physicalEnvironmentModule "\"physicalEnvironment\""
par Sample.visualizer.physicalEnvironmentVisualizer displayObjects true
par Sample.visualizer.physicalEnvironmentVisualizer zIndex 0
par Sample.visualizer.networkNodeVisualizer typename "\"inet.visualizer.canvas.scene.NetworkNodeCanvasVisualizer\""
par Sample.visualizer.networkNodeVisualizer visualizationTargetModule "\"^.^\""
par Sample.visualizer.networkNodeVisualizer visualizationSubjectModule "\"^.^\""
par Sample.visualizer.networkNodeVisualizer tags "\"\""
par Sample.visualizer.networkNodeVisualizer nodeFilter "\"*\""
attr mutable ""
par Sample.visualizer.networkNodeVisualizer annotationSpacing 4
par Sample.visualizer.networkNodeVisualizer placementPenalty 10
par Sample.visualizer.networkNodeVisualizer zIndex 0
par Sample.visualizer.networkConnectionVisualizer typename "\"inet.visualizer.canvas.scene.NetworkConnectionCanvasVisualizer\""
par Sample.visualizer.networkConnectionVisualizer visualizationTargetModule "\"^.^\""
par Sample.visualizer.networkConnectionVisualizer visualizationSubjectModule "\"^.^\""
par Sample.visualizer.networkConnectionVisualizer tags "\"\""
par Sample.visualizer.networkConnectionVisualizer displayNetworkConnections true
par Sample.visualizer.networkConnectionVisualizer nodeFilter "\"\""
attr mutable ""
par Sample.visualizer.networkConnectionVisualizer lineColor "\"black\""
par Sample.visualizer.networkConnectionVisualizer lineStyle "\"solid\""
par Sample.visualizer.networkConnectionVisualizer lineWidth 1
par Sample.visualizer.networkConnectionVisualizer zIndex 0
par Sample.visualizer.mobilityVisualizer typename "\"inet.visualizer.canvas.mobility.MobilityCanvasVisualizer\""
par Sample.visualizer.mobilityVisualizer visualizationTargetModule "\"^.^\""
par Sample.visualizer.mobilityVisualizer visualizationSubjectModule "\"^.^\""
par Sample.visualizer.mobilityVisualizer tags "\"\""
par Sample.visualizer.mobilityVisualizer networkNodeVisualizerModule "\"^.networkNodeVisualizer\""
par Sample.visualizer.mobilityVisualizer displayMobility true
par Sample.visualizer.mobilityVisualizer animationSpeed 0
par Sample.visualizer.mobilityVisualizer moduleFilter "\"**.mobility\""
attr mutable ""
par Sample.visualizer.mobilityVisualizer displayPositions false
par Sample.visualizer.mobilityVisualizer positionCircleRadius 4
par Sample.visualizer.mobilityVisualizer positionCircleLineWidth 1
par Sample.visualizer.mobilityVisualizer positionCircleLineColor "\"dark\""
par Sample.visualizer.mobilityVisualizer positionCircleFillColor "\"dark\""
par Sample.visualizer.mobilityVisualizer displayOrientations false
par Sample.visualizer.mobilityVisualizer orientationPieRadius 32
par Sample.visualizer.mobilityVisualizer orientationPieSize 0.2
par Sample.visualizer.mobilityVisualizer orientationPieOpacity 0.25
par Sample.visualizer.mobilityVisualizer orientationLineColor "\"black\""
par Sample.visualizer.mobilityVisualizer orientationLineStyle "\"solid\""
par Sample.visualizer.mobilityVisualizer orientationLineWidth 1
par Sample.visualizer.mobilityVisualizer orientationFillColor "\"blue\""
par Sample.visualizer.mobilityVisualizer displayVelocities false
par Sample.visualizer.mobilityVisualizer velocityArrowScale 1
par Sample.visualizer.mobilityVisualizer velocityLineColor "\"black\""
par Sample.visualizer.mobilityVisualizer velocityLineStyle "\"solid\""
par Sample.visualizer.mobilityVisualizer velocityLineWidth 1
par Sample.visualizer.mobilityVisualizer displayMovementTrails false
par Sample.visualizer.mobilityVisualizer movementTrailLineColor "\"dark\""
par Sample.visualizer.mobilityVisualizer movementTrailLineStyle "\"solid\""
par Sample.visualizer.mobilityVisualizer movementTrailLineWidth 1
par Sample.visualizer.mobilityVisualizer trailLength 100
par Sample.visualizer.mobilityVisualizer zIndex 0
par Sample.visualizer.statisticVisualizer typename "\"inet.visualizer.canvas.common.StatisticCanvasVisualizer\""
par Sample.visualizer.statisticVisualizer visualizationTargetModule "\"^.^\""
par Sample.visualizer.statisticVisualizer visualizationSubjectModule "\"^.^\""
par Sample.visualizer.statisticVisualizer tags "\"\""
par Sample.visualizer.statisticVisualizer networkNodeVisualizerModule "\"^.networkNodeVisualizer\""
par Sample.visualizer.statisticVisualizer displayStatistics true
par Sample.visualizer.statisticVisualizer signalName "\"\""
par Sample.visualizer.statisticVisualizer statisticName "\"\""
par Sample.visualizer.statisticVisualizer statisticUnit "\"\""
par Sample.visualizer.statisticVisualizer statisticExpression "\"\""
par Sample.visualizer.statisticVisualizer sourceFilter "\"**\""
attr mutable ""
par Sample.visualizer.statisticVisualizer format "\"%n: %v %u\""
attr mutable ""
par Sample.visualizer.statisticVisualizer unit "\"\""
par Sample.visualizer.statisticVisualizer font "\"<default>\""
par Sample.visualizer.statisticVisualizer textColor "\"black\""
par Sample.visualizer.statisticVisualizer backgroundColor "\"white\""
par Sample.visualizer.statisticVisualizer opacity 1
par Sample.visualizer.statisticVisualizer placementHint "\"top\""
par Sample.visualizer.statisticVisualizer placementPriority 0
par Sample.visualizer.statisticVisualizer zIndex 10
par Sample.visualizer.statisticVisualizer propertyName "\"\""
par Sample.visualizer.statisticVisualizer propertyIndex "\"\""
par Sample.visualizer.infoVisualizer typename "\"inet.visualizer.canvas.common.InfoCanvasVisualizer\""
par Sample.visualizer.infoVisualizer visualizationTargetModule "\"^.^\""
par Sample.visualizer.infoVisualizer visualizationSubjectModule "\"^.^\""
par Sample.visualizer.infoVisualizer tags "\"\""
par Sample.visualizer.infoVisualizer networkNodeVisualizerModule "\"^.networkNodeVisualizer\""
par Sample.visualizer.infoVisualizer displayInfos true
par Sample.visualizer.infoVisualizer modules "\"\""
attr mutable ""
par Sample.visualizer.infoVisualizer format "\"%t\""
attr mutable ""
par Sample.visualizer.infoVisualizer font "\"<default>\""
par Sample.visualizer.infoVisualizer textColor "\"black\""
par Sample.visualizer.infoVisualizer backgroundColor "\"white\""
par Sample.visualizer.infoVisualizer opacity 1
par Sample.visualizer.infoVisualizer placementHint "\"top\""
par Sample.visualizer.infoVisualizer placementPriority 0
par Sample.visualizer.infoVisualizer zIndex 10
par Sample.visualizer.energyStorageVisualizer typename "\"inet.visualizer.canvas.power.EnergyStorageCanvasVisualizer\""
par Sample.visualizer.energyStorageVisualizer visualizationTargetModule "\"^.^\""
par Sample.visualizer.energyStorageVisualizer visualizationSubjectModule "\"^.^\""
par Sample.visualizer.energyStorageVisualizer tags "\"\""
par Sample.visualizer.energyStorageVisualizer networkNodeVisualizerModule "\"^.networkNodeVisualizer\""
par Sample.visualizer.energyStorageVisualizer displayEnergyStorages false
par Sample.visualizer.energyStorageVisualizer energyStorageFilter "\"**\""
par Sample.visualizer.energyStorageVisualizer color "\"green\""
par Sample.visualizer.energyStorageVisualizer width 8
par Sample.visualizer.energyStorageVisualizer height 24
par Sample.visualizer.energyStorageVisualizer spacing 2
par Sample.visualizer.energyStorageVisualizer placementHint "\"right\""
par Sample.visualizer.energyStorageVisualizer placementPriority 0
par Sample.visualizer.energyStorageVisualizer zIndex 10
par Sample.visualizer.mediumVisualizer typename "\"inet.visualizer.canvas.physicallayer.MediumCanvasVisualizer\""
par Sample.visualizer.mediumVisualizer visualizationTargetModule "\"^.^\""
par Sample.visualizer.mediumVisualizer visualizationSubjectModule "\"^.^\""
par Sample.visualizer.mediumVisualizer tags "\"\""
par Sample.visualizer.mediumVisualizer mediumModule "\"radioMedium\""
par Sample.visualizer.mediumVisualizer networkNodeVisualizerModule "\"^.networkNodeVisualizer\""
par Sample.visualizer.mediumVisualizer nodeFilter "\"*\""
attr mutable ""
par Sample.visualizer.mediumVisualizer interfaceFilter "\"*\""
attr mutable ""
par Sample.visualizer.mediumVisualizer packetFilter "(omnetpp::cValueHolder)holder: \"*\""
attr mutable ""
par Sample.visualizer.mediumVisualizer displaySignals false
par Sample.visualizer.mediumVisualizer signalColor "\"dark\""
par Sample.visualizer.mediumVisualizer signalPropagationAnimationSpeed "nan "
attr mutable ""
par Sample.visualizer.mediumVisualizer signalPropagationAnimationTime 1s
attr unit s
par Sample.visualizer.mediumVisualizer signalPropagationAdditionalTime 0s
attr unit s
par Sample.visualizer.mediumVisualizer signalTransmissionAnimationSpeed "nan "
attr mutable ""
par Sample.visualizer.mediumVisualizer signalTransmissionAnimationTime 1s
attr unit s
par Sample.visualizer.mediumVisualizer signalAnimationSpeedChangeTimeMode "\"realTime\""
attr enum realTime,animationTime,simulationTime
par Sample.visualizer.mediumVisualizer signalAnimationSpeedChangeTime 1s
attr unit s
par Sample.visualizer.mediumVisualizer displaySignalDepartures false
par Sample.visualizer.mediumVisualizer signalDepartureImage "\"misc/signal_departure.png\""
par Sample.visualizer.mediumVisualizer signalDeparturePlacementHint "\"topCenter\""
par Sample.visualizer.mediumVisualizer signalDeparturePlacementPriority 1
par Sample.visualizer.mediumVisualizer displaySignalArrivals false
par Sample.visualizer.mediumVisualizer signalArrivalImage "\"misc/signal_arrival.png\""
par Sample.visualizer.mediumVisualizer signalArrivalPlacementHint "\"topCenter\""
par Sample.visualizer.mediumVisualizer signalArrivalPlacementPriority -1
par Sample.visualizer.mediumVisualizer displayCommunicationRanges false
par Sample.visualizer.mediumVisualizer communicationRangeLineColor "\"blue\""
par Sample.visualizer.mediumVisualizer communicationRangeLineStyle "\"solid\""
par Sample.visualizer.mediumVisualizer communicationRangeLineWidth 1
par Sample.visualizer.mediumVisualizer displayInterferenceRanges false
par Sample.visualizer.mediumVisualizer interferenceRangeLineColor "\"gray\""
par Sample.visualizer.mediumVisualizer interferenceRangeLineStyle "\"solid\""
par Sample.visualizer.mediumVisualizer interferenceRangeLineWidth 1
par Sample.visualizer.mediumVisualizer autoPowerAxis true
par Sample.visualizer.mediumVisualizer signalMinPower "inf dBmW"
attr unit dBmW
par Sample.visualizer.mediumVisualizer signalMaxPower 0dBmW
attr unit dBmW
par Sample.visualizer.mediumVisualizer signalMinPowerDensity "inf dBmWpMHz"
attr unit dBmWpMHz
par Sample.visualizer.mediumVisualizer signalMaxPowerDensity "-inf dBmWpMHz"
attr unit dBmWpMHz
par Sample.visualizer.mediumVisualizer autoTimeAxis true
par Sample.visualizer.mediumVisualizer signalMinTime 0s
attr unit s
par Sample.visualizer.mediumVisualizer signalMaxTime 0s
attr unit s
par Sample.visualizer.mediumVisualizer autoFrequencyAxis true
par Sample.visualizer.mediumVisualizer signalMinFrequency "inf Hz"
attr unit Hz
par Sample.visualizer.mediumVisualizer signalMaxFrequency "-inf Hz"
attr unit Hz
par Sample.visualizer.mediumVisualizer displayMainPowerDensityMap false
par Sample.visualizer.mediumVisualizer mainPowerDensityMapPixmapDensity 1
par Sample.visualizer.mediumVisualizer mainPowerDensityMapMinX 0
par Sample.visualizer.mediumVisualizer mainPowerDensityMapMaxX "nan "
par Sample.visualizer.mediumVisualizer mainPowerDensityMapMinY 0
par Sample.visualizer.mediumVisualizer mainPowerDensityMapMaxY "nan "
par Sample.visualizer.mediumVisualizer mainPowerDensityMapZ 0
par Sample.visualizer.mediumVisualizer mainPowerDensityMapFigureXTickCount 3
par Sample.visualizer.mediumVisualizer mainPowerDensityMapFigureYTickCount 3
par Sample.visualizer.mediumVisualizer displayPowerDensityMaps false
par Sample.visualizer.mediumVisualizer powerDensityMapMode "\"auto\""
attr enum total,signal,auto
par Sample.visualizer.mediumVisualizer powerDensityMapPixelMode "\"mean\""
attr enum sample,partition,mean
par Sample.visualizer.mediumVisualizer powerDensityMapApproximationSize 10
par Sample.visualizer.mediumVisualizer powerDensityMapCenterFrequency "nan Hz"
attr mutable ""
attr unit Hz
par Sample.visualizer.mediumVisualizer powerDensityMapBandwidth 0Hz
attr mutable ""
attr unit Hz
par Sample.visualizer.mediumVisualizer powerDensityMapFigureWidth 200
par Sample.visualizer.mediumVisualizer powerDensityMapFigureHeight 120
par Sample.visualizer.mediumVisualizer powerDensityMapPixmapWidth 200
par Sample.visualizer.mediumVisualizer powerDensityMapPixmapHeight 120
par Sample.visualizer.mediumVisualizer powerDensityMapZ 0
par Sample.visualizer.mediumVisualizer powerDensityMapFigureXTickCount 3
par Sample.visualizer.mediumVisualizer powerDensityMapFigureYTickCount 3
par Sample.visualizer.mediumVisualizer displaySpectrums false
par Sample.visualizer.mediumVisualizer spectrumMode "\"auto\""
attr enum total,signal,auto
par Sample.visualizer.mediumVisualizer spectrumFigureWidth 200
par Sample.visualizer.mediumVisualizer spectrumFigureHeight 120
par Sample.visualizer.mediumVisualizer spectrumFigureXTickCount 3
par Sample.visualizer.mediumVisualizer spectrumFigureYTickCount 5
par Sample.visualizer.mediumVisualizer spectrumFigureInterpolationSize 5
par Sample.visualizer.mediumVisualizer spectrumPlacementHint "\"bottomCenter\""
par Sample.visualizer.mediumVisualizer spectrumPlacementPriority -1
par Sample.visualizer.mediumVisualizer displaySpectrograms false
par Sample.visualizer.mediumVisualizer spectrogramMode "\"auto\""
attr enum total,signal,auto
par Sample.visualizer.mediumVisualizer spectrogramPixelMode "\"mean\""
attr enum sample,partition,mean
par Sample.visualizer.mediumVisualizer spectrogramFigureWidth 200
par Sample.visualizer.mediumVisualizer spectrogramFigureHeight 120
par Sample.visualizer.mediumVisualizer spectrogramPixmapWidth 200
par Sample.visualizer.mediumVisualizer spectrogramPixmapHeight 120
par Sample.visualizer.mediumVisualizer spectrogramFigureXTickCount 3
par Sample.visualizer.mediumVisualizer spectrogramFigureYTickCount 5
par Sample.visualizer.mediumVisualizer spectrogramPlacementHint "\"bottomCenter\""
par Sample.visualizer.mediumVisualizer spectrogramPlacementPriority -1
par Sample.visualizer.mediumVisualizer zIndex 0
par Sample.visualizer.mediumVisualizer signalShape "\"ring\""
attr enum ring,sphere
par Sample.visualizer.mediumVisualizer signalOpacity 0.5
par Sample.visualizer.mediumVisualizer signalRingCount 20
par Sample.visualizer.mediumVisualizer signalRingSize 50m
attr unit m
par Sample.visualizer.mediumVisualizer signalFadingDistance 50m
attr unit m
par Sample.visualizer.mediumVisualizer signalFadingFactor 1.2
par Sample.visualizer.mediumVisualizer signalWaveCount 20
par Sample.visualizer.mediumVisualizer signalWaveLength 50m
attr unit m
par Sample.visualizer.mediumVisualizer signalWaveWidth 10m
attr unit m
par Sample.visualizer.mediumVisualizer signalWaveFadingAnimationSpeedFactor 1
par Sample.visualizer.mediumVisualizer displayCommunicationHeat false
par Sample.visualizer.obstacleLossVisualizer typename "\"inet.visualizer.canvas.physicallayer.TracingObstacleLossCanvasVisualizer\""
par Sample.visualizer.obstacleLossVisualizer visualizationTargetModule "\"^.^\""
par Sample.visualizer.obstacleLossVisualizer visualizationSubjectModule "\"^.^\""
par Sample.visualizer.obstacleLossVisualizer tags "\"\""
par Sample.visualizer.obstacleLossVisualizer displayIntersections false
par Sample.visualizer.obstacleLossVisualizer intersectionLineColor "\"red\""
par Sample.visualizer.obstacleLossVisualizer intersectionLineStyle "\"solid\""
par Sample.visualizer.obstacleLossVisualizer intersectionLineWidth 1
par Sample.visualizer.obstacleLossVisualizer displayFaceNormalVectors false
par Sample.visualizer.obstacleLossVisualizer faceNormalLineColor "\"grey\""
par Sample.visualizer.obstacleLossVisualizer faceNormalLineStyle "\"solid\""
par Sample.visualizer.obstacleLossVisualizer faceNormalLineWidth 1
par Sample.visualizer.obstacleLossVisualizer fadeOutMode "\"realTime\""
attr enum realTime,animationTime,simulationTime
par Sample.visualizer.obstacleLossVisualizer fadeOutTime 1s
attr unit s
par Sample.visualizer.obstacleLossVisualizer fadeOutAnimationSpeed 0
par Sample.visualizer.obstacleLossVisualizer zIndex 0
par Sample.visualizer.packetDropVisualizer typename "\"inet.visualizer.canvas.common.PacketDropCanvasVisualizer\""
par Sample.visualizer.packetDropVisualizer visualizationTargetModule "\"^.^\""
par Sample.visualizer.packetDropVisualizer visualizationSubjectModule "\"^.^\""
par Sample.visualizer.packetDropVisualizer tags "\"\""
par Sample.visualizer.packetDropVisualizer displayPacketDrops false
par Sample.visualizer.packetDropVisualizer nodeFilter "\"*\""
attr mutable ""
par Sample.visualizer.packetDropVisualizer interfaceFilter "\"*\""
attr mutable ""
par Sample.visualizer.packetDropVisualizer packetFilter "(omnetpp::cValueHolder)holder: \"*\""
attr mutable ""
par Sample.visualizer.packetDropVisualizer detailsFilter "\"*\""
attr mutable ""
par Sample.visualizer.packetDropVisualizer icon "\"msg/packet_s\""
par Sample.visualizer.packetDropVisualizer iconTintAmount 1
par Sample.visualizer.packetDropVisualizer iconTintColor "\"dark\""
par Sample.visualizer.packetDropVisualizer labelFormat "\"%n\""
attr mutable ""
par Sample.visualizer.packetDropVisualizer labelFont "\"<default>\""
par Sample.visualizer.packetDropVisualizer labelColor "\"black\""
par Sample.visualizer.packetDropVisualizer fadeOutMode "\"realTime\""
attr enum realTime,animationTime,simulationTime
par Sample.visualizer.packetDropVisualizer fadeOutTime 1s
attr unit s
par Sample.visualizer.packetDropVisualizer fadeOutAnimationSpeed 0
par Sample.visualizer.packetDropVisualizer zIndex 10
par Sample.visualizer.packetDropVisualizer dx 32
par Sample.visualizer.packetDropVisualizer dy 64
par Sample.visualizer.packetFlowVisualizer typename "\"inet.visualizer.canvas.flow.PacketFlowCanvasVisualizer\""
par Sample.visualizer.packetFlowVisualizer visualizationTargetModule "\"^.^\""
par Sample.visualizer.packetFlowVisualizer visualizationSubjectModule "\"^.^\""
par Sample.visualizer.packetFlowVisualizer tags "\"\""
par Sample.visualizer.packetFlowVisualizer displayRoutes false
par Sample.visualizer.packetFlowVisualizer startPathSignal "\"packetFlowStarted\""
par Sample.visualizer.packetFlowVisualizer extendPathSignal "\"packetReceivedFromLower\""
par Sample.visualizer.packetFlowVisualizer endPathSignal "\"packetFlowEnded\""
par Sample.visualizer.packetFlowVisualizer nodeFilter "\"*\""
attr mutable ""
par Sample.visualizer.packetFlowVisualizer packetFilter "(omnetpp::cValueHolder)holder: \"*\""
attr mutable ""
par Sample.visualizer.packetFlowVisualizer lineColor "\"dark\""
par Sample.visualizer.packetFlowVisualizer lineStyle "\"dashed\""
par Sample.visualizer.packetFlowVisualizer lineWidth 3
par Sample.visualizer.packetFlowVisualizer lineSmooth false
par Sample.visualizer.packetFlowVisualizer lineShift 16
par Sample.visualizer.packetFlowVisualizer lineShiftMode "\"normal\""
par Sample.visualizer.packetFlowVisualizer lineContactSpacing 3
par Sample.visualizer.packetFlowVisualizer lineContactMode "\"rectangular\""
attr enum circular,rectangular
par Sample.visualizer.packetFlowVisualizer labelFormat "\"%L %p pk (%l)\""
par Sample.visualizer.packetFlowVisualizer labelFont "\"<default>, 8px\""
par Sample.visualizer.packetFlowVisualizer labelColor "\"\""
par Sample.visualizer.packetFlowVisualizer fadeOutMode "\"realTime\""
attr enum realTime,animationTime,simulationTime
par Sample.visualizer.packetFlowVisualizer fadeOutTime 0s
attr unit s
par Sample.visualizer.packetFlowVisualizer fadeOutAnimationSpeed 0
par Sample.visualizer.packetFlowVisualizer zIndex 4
par Sample.visualizer.queueVisualizer typename "\"inet.visualizer.canvas.common.QueueCanvasVisualizer\""
par Sample.visualizer.queueVisualizer visualizationTargetModule "\"^.^\""
par Sample.visualizer.queueVisualizer visualizationSubjectModule "\"^.^\""
par Sample.visualizer.queueVisualizer tags "\"\""
par Sample.visualizer.queueVisualizer networkNodeVisualizerModule "\"^.networkNodeVisualizer\""
par Sample.visualizer.queueVisualizer displayQueues false
par Sample.visualizer.queueVisualizer queueFilter "\"**\""
par Sample.visualizer.queueVisualizer color "\"blue\""
par Sample.visualizer.queueVisualizer width 8
par Sample.visualizer.queueVisualizer height 24
par Sample.visualizer.queueVisualizer spacing 2
par Sample.visualizer.queueVisualizer placementHint "\"right\""
par Sample.visualizer.queueVisualizer placementPriority 0
par Sample.visualizer.queueVisualizer zIndex 10
par Sample.visualizer.gateScheduleVisualizer typename "\"inet.visualizer.canvas.common.GateScheduleCanvasVisualizer\""
par Sample.visualizer.gateScheduleVisualizer visualizationTargetModule "\"^.^\""
par Sample.visualizer.gateScheduleVisualizer visualizationSubjectModule "\"^.^\""
par Sample.visualizer.gateScheduleVisualizer tags "\"\""
par Sample.visualizer.gateScheduleVisualizer networkNodeVisualizerModule "\"^.networkNodeVisualizer\""
par Sample.visualizer.gateScheduleVisualizer displayGateSchedules false
par Sample.visualizer.gateScheduleVisualizer labelFormat "\"%i %D\""
par Sample.visualizer.gateScheduleVisualizer gateFilter "\"**\""
par Sample.visualizer.gateScheduleVisualizer width 100
par Sample.visualizer.gateScheduleVisualizer height 8
par Sample.visualizer.gateScheduleVisualizer spacing 2
par Sample.visualizer.gateScheduleVisualizer placementHint "\"right\""
par Sample.visualizer.gateScheduleVisualizer placementPriority 0
par Sample.visualizer.gateScheduleVisualizer displayDuration 0s
attr mutable ""
attr unit s
par Sample.visualizer.gateScheduleVisualizer currentTimePosition 50
par Sample.visualizer.gateScheduleVisualizer zIndex 10
par Sample.visualizer.radioVisualizer typename "\"inet.visualizer.canvas.physicallayer.RadioCanvasVisualizer\""
par Sample.visualizer.radioVisualizer visualizationTargetModule "\"^.^\""
par Sample.visualizer.radioVisualizer visualizationSubjectModule "\"^.^\""
par Sample.visualizer.radioVisualizer tags "\"\""
par Sample.visualizer.radioVisualizer networkNodeVisualizerModule "\"^.networkNodeVisualizer\""
par Sample.visualizer.radioVisualizer displayRadios false
par Sample.visualizer.radioVisualizer displayRadioMode true
par Sample.visualizer.radioVisualizer displayReceptionState true
par Sample.visualizer.radioVisualizer displayTransmissionState true
par Sample.visualizer.radioVisualizer displayAntennaLobes false
par Sample.visualizer.radioVisualizer radioFilter "\"**\""
attr mutable ""
par Sample.visualizer.radioVisualizer radioModeImages "\"block/process_vs block/timer_vs block/wrx_vs block/wtx_vs block/wrxtx_vs block/cogwheel_vs\""
par Sample.visualizer.radioVisualizer receptionStateImages "\"- - misc/receiving misc/receiving\""
par Sample.visualizer.radioVisualizer transmissionStateImages "\"- - misc/transmitting\""
par Sample.visualizer.radioVisualizer width 16
par Sample.visualizer.radioVisualizer height 16
par Sample.visualizer.radioVisualizer placementHint "\"bottomRight\""
par Sample.visualizer.radioVisualizer placementPriority 0
par Sample.visualizer.radioVisualizer antennaLobeNormalize false
par Sample.visualizer.radioVisualizer antennaLobeRelativeLabels false
par Sample.visualizer.radioVisualizer antennaLobePlaneGlobal true
par Sample.visualizer.radioVisualizer antennaLobePlane "\"view\""
attr enum view,xy,xz,yz
par Sample.visualizer.radioVisualizer antennaLobeMode "\"logarithmic\""
attr enum logarithmic,linear
par Sample.visualizer.radioVisualizer antennaLobeLogarithmicBase 10
par Sample.visualizer.radioVisualizer antennaLobeLogarithmicScale 100
par Sample.visualizer.radioVisualizer antennaLobeRadius 100
par Sample.visualizer.radioVisualizer antennaLobeStep 10deg
attr unit deg
par Sample.visualizer.radioVisualizer antennaLobeOpacity 0.25
par Sample.visualizer.radioVisualizer antennaLobeLineSmooth true
par Sample.visualizer.radioVisualizer antennaLobeLineColor "\"black\""
par Sample.visualizer.radioVisualizer antennaLobeLineStyle "\"solid\""
par Sample.visualizer.radioVisualizer antennaLobeLineWidth 1
par Sample.visualizer.radioVisualizer antennaLobeFillColor "\"white\""
par Sample.visualizer.radioVisualizer zIndex 10
par Sample.visualizer.physicalLinkVisualizer typename "\"inet.visualizer.canvas.physicallayer.PhysicalLinkCanvasVisualizer\""
par Sample.visualizer.physicalLinkVisualizer visualizationTargetModule "\"^.^\""
par Sample.visualizer.physicalLinkVisualizer visualizationSubjectModule "\"^.^\""
par Sample.visualizer.physicalLinkVisualizer tags "\"\""
par Sample.visualizer.physicalLinkVisualizer displayLinks true
par Sample.visualizer.physicalLinkVisualizer activityLevel "\"service\""
attr enum service,peer,protocol
par Sample.visualizer.physicalLinkVisualizer nodeFilter "\"*\""
attr mutable ""
par Sample.visualizer.physicalLinkVisualizer interfaceFilter "\"*\""
attr mutable ""
par Sample.visualizer.physicalLinkVisualizer packetFilter "(omnetpp::cValueHolder)holder: \"*\""
attr mutable ""
par Sample.visualizer.physicalLinkVisualizer lineColor "\"olive\""
par Sample.visualizer.physicalLinkVisualizer lineStyle "\"dotted\""
par Sample.visualizer.physicalLinkVisualizer lineWidth 3
par Sample.visualizer.physicalLinkVisualizer lineShift 16
par Sample.visualizer.physicalLinkVisualizer lineShiftMode "\"normal\""
par Sample.visualizer.physicalLinkVisualizer lineContactSpacing 3
par Sample.visualizer.physicalLinkVisualizer lineContactMode "\"rectangular\""
attr enum circular,rectangular
par Sample.visualizer.physicalLinkVisualizer labelFormat "\"%n\""
par Sample.visualizer.physicalLinkVisualizer labelFont "\"<default>, 8px\""
par Sample.visualizer.physicalLinkVisualizer labelColor "\"olive\""
par Sample.visualizer.physicalLinkVisualizer fadeOutMode "\"realTime\""
attr enum realTime,animationTime,simulationTime
par Sample.visualizer.physicalLinkVisualizer fadeOutTime 1s
attr unit s
par Sample.visualizer.physicalLinkVisualizer fadeOutAnimationSpeed 0
par Sample.visualizer.physicalLinkVisualizer holdAnimationTime 0s
attr unit s
par Sample.visualizer.physicalLinkVisualizer zIndex 1
par Sample.visualizer.interfaceTableVisualizer typename "\"inet.visualizer.canvas.linklayer.InterfaceTableCanvasVisualizer\""
par Sample.visualizer.interfaceTableVisualizer visualizationTargetModule "\"^.^\""
par Sample.visualizer.interfaceTableVisualizer visualizationSubjectModule "\"^.^\""
par Sample.visualizer.interfaceTableVisualizer tags "\"\""
par Sample.visualizer.interfaceTableVisualizer networkNodeVisualizerModule "\"^.networkNodeVisualizer\""
par Sample.visualizer.interfaceTableVisualizer displayInterfaceTables false
par Sample.visualizer.interfaceTableVisualizer displayWiredInterfacesAtConnections true
par Sample.visualizer.interfaceTableVisualizer displayBackground false
par Sample.visualizer.interfaceTableVisualizer nodeFilter "\"*\""
attr mutable ""
par Sample.visualizer.interfaceTableVisualizer interfaceFilter "\"not(lo*)\""
attr mutable ""
par Sample.visualizer.interfaceTableVisualizer format "\"%N %\\\\%a%/%l\""
attr mutable ""
par Sample.visualizer.interfaceTableVisualizer placementHint "\"top\""
par Sample.visualizer.interfaceTableVisualizer placementPriority 0
par Sample.visualizer.interfaceTableVisualizer font "\"<default>\""
par Sample.visualizer.interfaceTableVisualizer textColor "\"#005030\""
par Sample.visualizer.interfaceTableVisualizer backgroundColor "\"white\""
par Sample.visualizer.interfaceTableVisualizer opacity 1
par Sample.visualizer.interfaceTableVisualizer zIndex 10
par Sample.visualizer.dataLinkVisualizer typename "\"inet.visualizer.canvas.linklayer.DataLinkCanvasVisualizer\""
par Sample.visualizer.dataLinkVisualizer visualizationTargetModule "\"^.^\""
par Sample.visualizer.dataLinkVisualizer visualizationSubjectModule "\"^.^\""
par Sample.visualizer.dataLinkVisualizer tags "\"\""
par Sample.visualizer.dataLinkVisualizer displayLinks false
par Sample.visualizer.dataLinkVisualizer activityLevel "\"service\""
attr enum service,peer,protocol
par Sample.visualizer.dataLinkVisualizer nodeFilter "\"*\""
attr mutable ""
par Sample.visualizer.dataLinkVisualizer interfaceFilter "\"*\""
attr mutable ""
par Sample.visualizer.dataLinkVisualizer packetFilter "(omnetpp::cValueHolder)holder: \"*\""
attr mutable ""
par Sample.visualizer.dataLinkVisualizer lineColor "\"darkcyan\""
par Sample.visualizer.dataLinkVisualizer lineStyle "\"solid\""
par Sample.visualizer.dataLinkVisualizer lineWidth 3
par Sample.visualizer.dataLinkVisualizer lineShift 16
par Sample.visualizer.dataLinkVisualizer lineShiftMode "\"normal\""
par Sample.visualizer.dataLinkVisualizer lineContactSpacing 3
par Sample.visualizer.dataLinkVisualizer lineContactMode "\"rectangular\""
attr enum circular,rectangular
par Sample.visualizer.dataLinkVisualizer labelFormat "\"%n\""
par Sample.visualizer.dataLinkVisualizer labelFont "\"<default>, 8px\""
par Sample.visualizer.dataLinkVisualizer labelColor "\"darkcyan\""
par Sample.visualizer.dataLinkVisualizer fadeOutMode "\"realTime\""
attr enum realTime,animationTime,simulationTime
par Sample.visualizer.dataLinkVisualizer fadeOutTime 1s
attr unit s
par Sample.visualizer.dataLinkVisualizer fadeOutAnimationSpeed 0
par Sample.visualizer.dataLinkVisualizer holdAnimationTime 0s
attr unit s
par Sample.visualizer.dataLinkVisualizer zIndex 2
par Sample.visualizer.linkBreakVisualizer typename "\"inet.visualizer.canvas.linklayer.LinkBreakCanvasVisualizer\""
par Sample.visualizer.linkBreakVisualizer visualizationTargetModule "\"^.^\""
par Sample.visualizer.linkBreakVisualizer visualizationSubjectModule "\"^.^\""
par Sample.visualizer.linkBreakVisualizer tags "\"\""
par Sample.visualizer.linkBreakVisualizer displayLinkBreaks false
par Sample.visualizer.linkBreakVisualizer nodeFilter "\"*\""
attr mutable ""
par Sample.visualizer.linkBreakVisualizer interfaceFilter "\"*\""
attr mutable ""
par Sample.visualizer.linkBreakVisualizer packetFilter "(omnetpp::cValueHolder)holder: \"*\""
attr mutable ""
par Sample.visualizer.linkBreakVisualizer icon "\"status/stop\""
par Sample.visualizer.linkBreakVisualizer iconTintAmount 0
par Sample.visualizer.linkBreakVisualizer iconTintColor "\"\""
par Sample.visualizer.linkBreakVisualizer fadeOutMode "\"realTime\""
attr enum realTime,animationTime,simulationTime
par Sample.visualizer.linkBreakVisualizer fadeOutTime 1s
attr unit s
par Sample.visualizer.linkBreakVisualizer fadeOutAnimationSpeed 0
par Sample.visualizer.linkBreakVisualizer zIndex 2
par Sample.visualizer.ieee80211Visualizer typename "\"inet.visualizer.canvas.linklayer.Ieee80211CanvasVisualizer\""
par Sample.visualizer.ieee80211Visualizer visualizationTargetModule "\"^.^\""
par Sample.visualizer.ieee80211Visualizer visualizationSubjectModule "\"^.^\""
par Sample.visualizer.ieee80211Visualizer tags "\"\""
par Sample.visualizer.ieee80211Visualizer networkNodeVisualizerModule "\"^.networkNodeVisualizer\""
par Sample.visualizer.ieee80211Visualizer displayAssociations false
par Sample.visualizer.ieee80211Visualizer nodeFilter "\"*\""
attr mutable ""
par Sample.visualizer.ieee80211Visualizer interfaceFilter "\"*\""
attr mutable ""
par Sample.visualizer.ieee80211Visualizer minPower -85dBm
attr unit dBm
par Sample.visualizer.ieee80211Visualizer maxPower -50dBm
attr unit dBm
par Sample.visualizer.ieee80211Visualizer icons "\"misc/signal_power_0 misc/signal_power_1 misc/signal_power_2 misc/signal_power_3\""
par Sample.visualizer.ieee80211Visualizer iconColor "\"dark\""
par Sample.visualizer.ieee80211Visualizer labelFont "\"<default>\""
par Sample.visualizer.ieee80211Visualizer labelColor "\"black\""
par Sample.visualizer.ieee80211Visualizer placementHint "\"top\""
par Sample.visualizer.ieee80211Visualizer placementPriority 0
par Sample.visualizer.ieee80211Visualizer zIndex 2
par Sample.visualizer.networkRouteVisualizer typename "\"inet.visualizer.canvas.networklayer.NetworkRouteCanvasVisualizer\""
par Sample.visualizer.networkRouteVisualizer visualizationTargetModule "\"^.^\""
par Sample.visualizer.networkRouteVisualizer visualizationSubjectModule "\"^.^\""
par Sample.visualizer.networkRouteVisualizer tags "\"\""
par Sample.visualizer.networkRouteVisualizer displayRoutes false
par Sample.visualizer.networkRouteVisualizer startPathSignal "\"packetReceivedFromUpper\""
par Sample.visualizer.networkRouteVisualizer extendPathSignal "\"packetReceivedFromLower\""
par Sample.visualizer.networkRouteVisualizer endPathSignal "\"packetSentToUpper\""
par Sample.visualizer.networkRouteVisualizer nodeFilter "\"*\""
attr mutable ""
par Sample.visualizer.networkRouteVisualizer packetFilter "(omnetpp::cValueHolder)holder: \"*\""
attr mutable ""
par Sample.visualizer.networkRouteVisualizer lineColor "\"dark\""
par Sample.visualizer.networkRouteVisualizer lineStyle "\"solid\""
par Sample.visualizer.networkRouteVisualizer lineWidth 3
par Sample.visualizer.networkRouteVisualizer lineSmooth false
par Sample.visualizer.networkRouteVisualizer lineShift 16
par Sample.visualizer.networkRouteVisualizer lineShiftMode "\"normal\""
par Sample.visualizer.networkRouteVisualizer lineContactSpacing 3
par Sample.visualizer.networkRouteVisualizer lineContactMode "\"rectangular\""
attr enum circular,rectangular
par Sample.visualizer.networkRouteVisualizer labelFormat "\"%n\""
par Sample.visualizer.networkRouteVisualizer labelFont "\"<default>, 8px\""
par Sample.visualizer.networkRouteVisualizer labelColor "\"\""
par Sample.visualizer.networkRouteVisualizer fadeOutMode "\"realTime\""
attr enum realTime,animationTime,simulationTime
par Sample.visualizer.networkRouteVisualizer fadeOutTime 1s
attr unit s
par Sample.visualizer.networkRouteVisualizer fadeOutAnimationSpeed 0
par Sample.visualizer.networkRouteVisualizer zIndex 3
par Sample.visualizer.routingTableVisualizer typename "\"inet.visualizer.canvas.networklayer.RoutingTableCanvasVisualizer\""
par Sample.visualizer.routingTableVisualizer visualizationTargetModule "\"^.^\""
par Sample.visualizer.routingTableVisualizer visualizationSubjectModule "\"^.^\""
par Sample.visualizer.routingTableVisualizer tags "\"\""
par Sample.visualizer.routingTableVisualizer displayRoutingTables false
par Sample.visualizer.routingTableVisualizer displayRoutesIndividually true
par Sample.visualizer.routingTableVisualizer displayLabels true
par Sample.visualizer.routingTableVisualizer destinationFilter "\"*\""
attr mutable ""
par Sample.visualizer.routingTableVisualizer nodeFilter "\"*\""
attr mutable ""
par Sample.visualizer.routingTableVisualizer lineColor "\"black\""
par Sample.visualizer.routingTableVisualizer lineStyle "\"solid\""
par Sample.visualizer.routingTableVisualizer lineWidth 2
par Sample.visualizer.routingTableVisualizer lineShift 16
par Sample.visualizer.routingTableVisualizer lineShiftMode "\"normal\""
par Sample.visualizer.routingTableVisualizer lineContactSpacing 3
par Sample.visualizer.routingTableVisualizer lineContactMode "\"rectangular\""
attr enum circular,rectangular
par Sample.visualizer.routingTableVisualizer labelFormat "\"%d/%m -> %g (%n)\""
attr mutable ""
par Sample.visualizer.routingTableVisualizer labelFont "\"<default>, 8px\""
par Sample.visualizer.routingTableVisualizer labelColor "\"black\""
par Sample.visualizer.routingTableVisualizer zIndex 0
par Sample.visualizer.transportRouteVisualizer typename "\"inet.visualizer.canvas.transportlayer.TransportRouteCanvasVisualizer\""
par Sample.visualizer.transportRouteVisualizer visualizationTargetModule "\"^.^\""
par Sample.visualizer.transportRouteVisualizer visualizationSubjectModule "\"^.^\""
par Sample.visualizer.transportRouteVisualizer tags "\"\""
par Sample.visualizer.transportRouteVisualizer displayRoutes false
par Sample.visualizer.transportRouteVisualizer startPathSignal "\"packetReceivedFromUpper\""
par Sample.visualizer.transportRouteVisualizer extendPathSignal "\"packetReceivedFromLower\""
par Sample.visualizer.transportRouteVisualizer endPathSignal "\"packetSentToUpper\""
par Sample.visualizer.transportRouteVisualizer nodeFilter "\"*\""
attr mutable ""
par Sample.visualizer.transportRouteVisualizer packetFilter "(omnetpp::cValueHolder)holder: \"*\""
attr mutable ""
par Sample.visualizer.transportRouteVisualizer lineColor "\"dark\""
par Sample.visualizer.transportRouteVisualizer lineStyle "\"solid\""
par Sample.visualizer.transportRouteVisualizer lineWidth 3
par Sample.visualizer.transportRouteVisualizer lineSmooth false
par Sample.visualizer.transportRouteVisualizer lineShift 16
par Sample.visualizer.transportRouteVisualizer lineShiftMode "\"normal\""
par Sample.visualizer.transportRouteVisualizer lineContactSpacing 3
par Sample.visualizer.transportRouteVisualizer lineContactMode "\"rectangular\""
attr enum circular,rectangular
par Sample.visualizer.transportRouteVisualizer labelFormat "\"%n\""
par Sample.visualizer.transportRouteVisualizer labelFont "\"<default>, 8px\""
par Sample.visualizer.transportRouteVisualizer labelColor "\"\""
par Sample.visualizer.transportRouteVisualizer fadeOutMode "\"realTime\""
attr enum realTime,animationTime,simulationTime
par Sample.visualizer.transportRouteVisualizer fadeOutTime 1s
attr unit s
par Sample.visualizer.transportRouteVisualizer fadeOutAnimationSpeed 0
par Sample.visualizer.transportRouteVisualizer zIndex 4
par Sample.visualizer.transportConnectionVisualizer typename "\"inet.visualizer.canvas.transportlayer.TransportConnectionCanvasVisualizer\""
par Sample.visualizer.transportConnectionVisualizer visualizationTargetModule "\"^.^\""
par Sample.visualizer.transportConnectionVisualizer visualizationSubjectModule "\"^.^\""
par Sample.visualizer.transportConnectionVisualizer tags "\"\""
par Sample.visualizer.transportConnectionVisualizer networkNodeVisualizerModule "\"^.networkNodeVisualizer\""
par Sample.visualizer.transportConnectionVisualizer displayTransportConnections false
par Sample.visualizer.transportConnectionVisualizer sourceNodeFilter "\"*\""
attr mutable ""
par Sample.visualizer.transportConnectionVisualizer sourcePortFilter "\"*\""
attr mutable ""
par Sample.visualizer.transportConnectionVisualizer destinationNodeFilter "\"*\""
attr mutable ""
par Sample.visualizer.transportConnectionVisualizer destinationPortFilter "\"*\""
attr mutable ""
par Sample.visualizer.transportConnectionVisualizer icon "\"misc/marker_s\""
par Sample.visualizer.transportConnectionVisualizer iconColor "\"dark\""
par Sample.visualizer.transportConnectionVisualizer labelFont "\"<default>\""
par Sample.visualizer.transportConnectionVisualizer labelColor "\"black\""
par Sample.visualizer.transportConnectionVisualizer placementHint "\"top\""
par Sample.visualizer.transportConnectionVisualizer placementPriority 0
par Sample.visualizer.transportConnectionVisualizer zIndex 4
par Sample.visualizer.failureProtectionConfigurationVisualizer typename "\"inet.visualizer.canvas.configurator.FailureProtectionConfigurationCanvasVisualizer\""
par Sample.visualizer.failureProtectionConfigurationVisualizer visualizationTargetModule "\"^.^\""
par Sample.visualizer.failureProtectionConfigurationVisualizer visualizationSubjectModule "\"^.^\""
par Sample.visualizer.failureProtectionConfigurationVisualizer tags "\"\""
par Sample.visualizer.failureProtectionConfigurationVisualizer displayTrees false
par Sample.visualizer.failureProtectionConfigurationVisualizer lineColor "\"dark\""
par Sample.visualizer.failureProtectionConfigurationVisualizer lineStyle "\"solid\""
par Sample.visualizer.failureProtectionConfigurationVisualizer lineWidth 3
par Sample.visualizer.failureProtectionConfigurationVisualizer lineSmooth false
par Sample.visualizer.failureProtectionConfigurationVisualizer lineShift 16
par Sample.visualizer.failureProtectionConfigurationVisualizer lineShiftMode "\"normal\""
par Sample.visualizer.failureProtectionConfigurationVisualizer lineContactSpacing 3
par Sample.visualizer.failureProtectionConfigurationVisualizer lineContactMode "\"rectangular\""
attr enum circular,rectangular
par Sample.visualizer.failureProtectionConfigurationVisualizer failureProtectionConfiguratorModule "\"failureProtectionConfigurator\""
par Sample.visualizer.failureProtectionConfigurationVisualizer streamFilter "\"*\""
par Sample.visualizer.failureProtectionConfigurationVisualizer zIndex 3
par Sample.visualizer.streamRedundancyConfigurationVisualizer typename "\"inet.visualizer.canvas.configurator.StreamRedundancyConfigurationCanvasVisualizer\""
par Sample.visualizer.streamRedundancyConfigurationVisualizer visualizationTargetModule "\"^.^\""
par Sample.visualizer.streamRedundancyConfigurationVisualizer visualizationSubjectModule "\"^.^\""
par Sample.visualizer.streamRedundancyConfigurationVisualizer tags "\"\""
par Sample.visualizer.streamRedundancyConfigurationVisualizer displayTrees false
par Sample.visualizer.streamRedundancyConfigurationVisualizer lineColor "\"dark\""
par Sample.visualizer.streamRedundancyConfigurationVisualizer lineStyle "\"solid\""
par Sample.visualizer.streamRedundancyConfigurationVisualizer lineWidth 3
par Sample.visualizer.streamRedundancyConfigurationVisualizer lineSmooth false
par Sample.visualizer.streamRedundancyConfigurationVisualizer lineShift 16
par Sample.visualizer.streamRedundancyConfigurationVisualizer lineShiftMode "\"normal\""
par Sample.visualizer.streamRedundancyConfigurationVisualizer lineContactSpacing 3
par Sample.visualizer.streamRedundancyConfigurationVisualizer lineContactMode "\"rectangular\""
attr enum circular,rectangular
par Sample.visualizer.streamRedundancyConfigurationVisualizer streamRedundancyConfiguratorModule "\"streamRedundancyConfigurator\""
par Sample.visualizer.streamRedundancyConfigurationVisualizer streamFilter "\"*\""
par Sample.visualizer.streamRedundancyConfigurationVisualizer zIndex 3
par Sample.visualizer typename "\"inet.visualizer.canvas.integrated.IntegratedCanvasVisualizer\""
par Sample.configurator typename "\"inet.networklayer.configurator.ipv4.Ipv4NetworkConfigurator\""
par Sample.configurator minLinkWeight 0.001
par Sample.configurator configureIsolatedNetworksSeparatly false
par Sample.configurator config "<config>...</config> at content:1"
par Sample.configurator assignAddresses true
par Sample.configurator assignUniqueAddresses true
par Sample.configurator assignDisjunctSubnetAddresses true
par Sample.configurator addStaticRoutes true
par Sample.configurator addDefaultRoutes true
par Sample.configurator addSubnetRoutes true
par Sample.configurator addDirectRoutes true
par Sample.configurator optimizeRoutes true
par Sample.configurator dumpTopology false
par Sample.configurator dumpLinks false
par Sample.configurator dumpAddresses false
par Sample.configurator dumpRoutes false
par Sample.configurator dumpConfig "\"\""
par Sample.radioMedium.propagation typename "\"inet.physicallayer.wireless.common.propagation.ConstantSpeedPropagation\""
par Sample.radioMedium.propagation propagationSpeed 2.99792e+08mps
attr unit mps
par Sample.radioMedium.propagation ignoreMovementDuringTransmission true
par Sample.radioMedium.propagation ignoreMovementDuringPropagation true
par Sample.radioMedium.propagation ignoreMovementDuringReception true
scalar Sample.radioMedium.propagation "Arrival computation count" 476949
par Sample.radioMedium.analogModel typename "\"inet.physicallayer.wireless.unitdisk.UnitDiskAnalogModel\""
par Sample.radioMedium.pathLoss typename "\"inet.physicallayer.wireless.common.pathloss.FreeSpacePathLoss\""
par Sample.radioMedium.pathLoss alpha 2
par Sample.radioMedium.pathLoss systemLoss 0dB
attr unit dB
par Sample.radioMedium.mediumLimitCache typename "\"inet.physicallayer.wireless.common.medium.MediumLimitCache\""
par Sample.radioMedium.mediumLimitCache centerFrequency "nan Hz"
attr unit Hz
par Sample.radioMedium.mediumLimitCache maxSpeed "nan mps"
attr unit mps
par Sample.radioMedium.mediumLimitCache maxTransmissionPower "nan W"
attr unit W
par Sample.radioMedium.mediumLimitCache minInterferencePower "nan dBm"
attr unit dBm
par Sample.radioMedium.mediumLimitCache minReceptionPower "nan dBm"
attr unit dBm
par Sample.radioMedium.mediumLimitCache maxAntennaGain 0dB
attr unit dB
par Sample.radioMedium.mediumLimitCache minInterferenceTime 1e-12s
attr unit s
par Sample.radioMedium.mediumLimitCache maxTransmissionDuration 0.01s
attr unit s
par Sample.radioMedium.mediumLimitCache maxCommunicationRange "nan m"
attr unit m
par Sample.radioMedium.mediumLimitCache maxInterferenceRange "nan m"
attr unit m
par Sample.radioMedium.communicationCache typename "\"inet.physicallayer.wireless.common.communicationcache.VectorCommunicationCache\""
par Sample.radioMedium typename "\"inet.physicallayer.wireless.unitdisk.UnitDiskRadioMedium\""
par Sample.radioMedium physicalEnvironmentModule "\"physicalEnvironment\""
par Sample.radioMedium signalAnalogRepresentation "\"unitDisk\""
attr enum unitDisk,scalar,dimensional
par Sample.radioMedium rangeFilter "\"\""
par Sample.radioMedium radioModeFilter false
par Sample.radioMedium listeningFilter false
par Sample.radioMedium macAddressFilter false
par Sample.radioMedium recordTransmissionLog false
par Sample.radioMedium recordReceptionLog false
scalar Sample.radioMedium "transmission count" 3201
scalar Sample.radioMedium "signal send count" 476949
scalar Sample.radioMedium "reception computation count" 476949
scalar Sample.radioMedium "interference computation count" 1197049
scalar Sample.radioMedium "reception decision computation count" 10564
scalar Sample.radioMedium "listening decision computation count" 709536
scalar Sample.radioMedium "reception cache hit" 97.455608422677
attr unit %
scalar Sample.radioMedium "interference cache hit" 66.666666666667
attr unit %
scalar Sample.radioMedium "noise cache hit" 0
attr unit %
scalar Sample.radioMedium "snir cache hit" 50
attr unit %
scalar Sample.radioMedium "reception decision cache hit" 50
attr unit %
scalar Sample.radioMedium "reception result cache hit" 0
attr unit %
par Sample.host[0].radioIn[0].channel typename "\"ned.IdealChannel\""
par Sample.host[0].mobility typename "\"inet.mobility.single.RandomWaypointMobility\""
par Sample.host[0].mobility subjectModule "\"^\""
par Sample.host[0].mobility coordinateSystemModule "\"\""
par Sample.host[0].mobility displayStringTextFormat "\"p: %p\\nv: %v\""
attr mutable ""
par Sample.host[0].mobility updateDisplayString true
par Sample.host[0].mobility constraintAreaMinX 0m
attr unit m
par Sample.host[0].mobility constraintAreaMinY 0m
attr unit m
par Sample.host[0].mobility constraintAreaMinZ 0m
attr unit m
par Sample.host[0].mobility constraintAreaMaxX 1500m
attr unit m
par Sample.host[0].mobility constraintAreaMaxY 1000m
attr unit m
par Sample.host[0].mobility constraintAreaMaxZ 0m
attr unit m
par Sample.host[0].mobility updateInterval 0.1s
attr unit s
par Sample.host[0].mobility faceForward true
par Sample.host[0].mobility initialX 826.197m
attr unit m
par Sample.host[0].mobility initialY 70.7249m
attr unit m
par Sample.host[0].mobility initialZ 0m
attr unit m
par Sample.host[0].mobility initFromDisplayString false
par Sample.host[0].mobility speed 1mps
attr unit mps
par Sample.host[0].mobility waitTime 0s
attr unit s
par Sample.host[0].interfaceTable typename "\"inet.networklayer.common.InterfaceTable\""
par Sample.host[0].interfaceTable displayAddresses false
par Sample.host[0].cb typename "\"inet.common.MessageDispatcher\""
par Sample.host[0].cb displayStringTextFormat "\"processed %p pk (%l)\""
par Sample.host[0].cb forwardServiceRegistration true
par Sample.host[0].cb forwardProtocolRegistration true
par Sample.host[0].bl typename "\"inet.common.MessageDispatcher\""
par Sample.host[0].bl displayStringTextFormat "\"processed %p pk (%l)\""
par Sample.host[0].bl forwardServiceRegistration true
par Sample.host[0].bl forwardProtocolRegistration true
par Sample.host[0].li typename "\"inet.common.MessageDispatcher\""
par Sample.host[0].li displayStringTextFormat "\"processed %p pk (%l)\""
par Sample.host[0].li forwardServiceRegistration true
par Sample.host[0].li forwardProtocolRegistration true
par Sample.host[0].lo[0].upperLayerIn.channel typename "\"ned.IdealChannel\""
par Sample.host[0].lo[0].lo.upperLayerOut.channel typename "\"ned.IdealChannel\""
par Sample.host[0].lo[0].lo typename "\"inet.linklayer.loopback.Loopback\""
par Sample.host[0].lo[0].lo interfaceTableModule "\"Sample.host[0].interfaceTable\""
par Sample.host[0].lo[0].lo mtu 4470B
attr unit B
scalar Sample.host[0].lo[0].lo rcvdPkFromHl:count 0
attr interpolationmode none
attr recordingmode count
attr source packetReceivedFromUpper
attr title "packets received from higher layer, count"
scalar Sample.host[0].lo[0].lo rcvdPkFromHl:sum(packetBytes) 0
attr interpolationmode none
attr recordingmode sum(packetBytes)
attr source packetReceivedFromUpper
attr title "packets received from higher layer, sum(packetBytes)"
scalar Sample.host[0].lo[0].lo passedUpPk:count 0
attr interpolationmode none
attr recordingmode count
attr source packetSentToUpper
attr title "packets passed to higher layer, count"
scalar Sample.host[0].lo[0].lo passedUpPk:sum(packetBytes) 0
attr interpolationmode none
attr recordingmode sum(packetBytes)
attr source packetSentToUpper
attr title "packets passed to higher layer, sum(packetBytes)"
par Sample.host[0].lo[0] typename "\"inet.linklayer.loopback.LoopbackInterface\""
par Sample.host[0].lo[0] displayStringTextFormat "\"%a (%i)\\n%m\""
par Sample.host[0].lo[0] recordPcap false
par Sample.host[0].lo[0] numPcapRecorders 0
par Sample.host[0].lo[0] interfaceTableModule "\"Sample.host[0].interfaceTable\""
scalar Sample.host[0].lo[0] packetDropInterfaceDown:count 0
attr interpolationmode none
attr recordingmode count
attr source packetDropReasonIsInterfaceDown(packetDropped)
attr title "packet drops: interface down, count"
scalar Sample.host[0].lo[0] packetDropInterfaceDown:sum(packetBytes) 0
attr interpolationmode none
attr recordingmode sum(packetBytes)
attr source packetDropReasonIsInterfaceDown(packetDropped)
attr title "packet drops: interface down, sum(packetBytes)"
scalar Sample.host[0].lo[0] packetDropNoCarrier:count 0
attr interpolationmode none
attr recordingmode count
attr source packetDropReasonIsNoCarrier(packetDropped)
attr title "packet drops: no carrier, count"
scalar Sample.host[0].lo[0] packetDropNoCarrier:sum(packetBytes) 0
attr interpolationmode none
attr recordingmode sum(packetBytes)
attr source packetDropReasonIsNoCarrier(packetDropped)
attr title "packet drops: no carrier, sum(packetBytes)"
par Sample.host[0].wlan[0].upperLayerIn.channel typename "\"ned.IdealChannel\""
par Sample.host[0].wlan[0].radioIn.channel typename "\"ned.IdealChannel\""
par Sample.host[0].wlan[0].mac.upperLayerOut.channel typename "\"ned.IdealChannel\""
par Sample.host[0].wlan[0].queue typename "\"inet.queueing.queue.DropTailQueue\""
par Sample.host[0].wlan[0].queue displayStringTextFormat "\"contains %p pk (%l) pushed %u\\npulled %o removed %r dropped %d\""
par Sample.host[0].wlan[0].queue packetCapacity 100
par Sample.host[0].wlan[0].queue dataCapacity -1b
attr unit b
par Sample.host[0].wlan[0].queue dropperClass "\"inet::queueing::PacketAtCollectionEndDropper\""
par Sample.host[0].wlan[0].queue comparatorClass "\"\""
par Sample.host[0].wlan[0].queue bufferModule "\"\""
scalar Sample.host[0].wlan[0].queue queueLength:last 0
attr autoWarmupFilter false
attr interpolationmode sample-hold
attr recordingmode last
attr source "warmup(atomic(constant0(packetPushEnded) + count(packetPushStarted) - count(packetPulled) - count(packetRemoved) - count(packetDropped)))"
attr title "queue length, last"
attr unit pk
scalar Sample.host[0].wlan[0].queue queueLength:max 0
attr autoWarmupFilter false
attr interpolationmode sample-hold
attr recordingmode max
attr source "warmup(atomic(constant0(packetPushEnded) + count(packetPushStarted) - count(packetPulled) - count(packetRemoved) - count(packetDropped)))"
attr title "queue length, max"
attr unit pk
scalar Sample.host[0].wlan[0].queue queueLength:timeavg 0
attr autoWarmupFilter false
attr interpolationmode sample-hold
attr recordingmode timeavg
attr source "warmup(atomic(constant0(packetPushEnded) + count(packetPushStarted) - count(packetPulled) - count(packetRemoved) - count(packetDropped)))"
attr title "queue length, timeavg"
attr unit pk
scalar Sample.host[0].wlan[0].queue queueBitLength:last 0
attr autoWarmupFilter false
attr interpolationmode sample-hold
attr recordingmode last
attr source "warmup(atomic(constant0(packetPushEnded) + sum(packetLength(packetPushStarted)) - sum(packetLength(packetPulled)) - sum(packetLength(packetRemoved)) - sum(packetLength(packetDropped))))"
attr title "queue bit length, last"
attr unit b
scalar Sample.host[0].wlan[0].queue queueBitLength:max 0
attr autoWarmupFilter false
attr interpolationmode sample-hold
attr recordingmode max
attr source "warmup(atomic(constant0(packetPushEnded) + sum(packetLength(packetPushStarted)) - sum(packetLength(packetPulled)) - sum(packetLength(packetRemoved)) - sum(packetLength(packetDropped))))"
attr title "queue bit length, max"
attr unit b
scalar Sample.host[0].wlan[0].queue queueBitLength:timeavg 0
attr autoWarmupFilter false
attr interpolationmode sample-hold
attr recordingmode timeavg
attr source "warmup(atomic(constant0(packetPushEnded) + sum(packetLength(packetPushStarted)) - sum(packetLength(packetPulled)) - sum(packetLength(packetRemoved)) - sum(packetLength(packetDropped))))"
attr title "queue bit length, timeavg"
attr unit b
statistic Sample.host[0].wlan[0].queue queueingTime:histogram
field count 6
field mean 0
field stddev 0
field min 0
field max 0
field sum 0
field sqrsum 0
attr interpolationmode none
attr recordingmode histogram
attr source queueingTime(packetPulled)
attr title "queueing times"
attr unit s
bin	-inf	0
bin	-0.5	0
bin	-0.48	0
bin	-0.46	0
bin	-0.44	0
bin	-0.42	0
bin	-0.4	0
bin	-0.38	0
bin	-0.36	0
bin	-0.34	0
bin	-0.32	0
bin	-0.3	0
bin	-0.28	0
bin	-0.26	0
bin	-0.24	0
bin	-0.22	0
bin	-0.2	0
bin	-0.18	0
bin	-0.16	0
bin	-0.14	0
bin	-0.12	0
bin	-0.1	0
bin	-0.08	0
bin	-0.06	0
bin	-0.04	0
bin	-0.02	0
bin	0	6
bin	0.02	0
bin	0.04	0
bin	0.06	0
bin	0.08	0
bin	0.1	0
bin	0.12	0
bin	0.14	0
bin	0.16	0
bin	0.18	0
bin	0.2	0
bin	0.22	0
bin	0.24	0
bin	0.26	0
bin	0.28	0
bin	0.3	0
bin	0.32	0
bin	0.34	0
bin	0.36	0
bin	0.38	0
bin	0.4	0
bin	0.42	0
bin	0.44	0
bin	0.46	0
bin	0.48	0
bin	0.5	0
scalar Sample.host[0].wlan[0].queue outgoingPackets:count 6
attr recordingmode count
attr source packetPulled
attr title "outgoing packets, count"
attr unit pk
scalar Sample.host[0].wlan[0].queue outgoingPacketLengths:sum 288
attr interpolationmode none
attr recordingmode sum
attr source packetLength(packetPulled)
attr title "outgoing packet lengths, sum"
attr unit b
statistic Sample.host[0].wlan[0].queue outgoingPacketLengths:histogram
field count 6
field mean 48
field stddev 0
field min 48
field max 48
field sum 288
field sqrsum 13824
attr interpolationmode none
attr recordingmode histogram
attr source packetLength(packetPulled)
attr title "outgoing packet lengths"
attr unit b
bin	-inf	0
bin	47	0
bin	48	6
bin	49	0
statistic Sample.host[0].wlan[0].queue flowQueueingTime:histogram
field count 0
field mean nan
field stddev nan
field min nan
field max nan
field sum 0
field sqrsum 0
attr interpolationmode none
attr recordingmode histogram
attr source queueingTime(demuxFlow(packetPulled))
attr title "flow queueing times"
attr unit s
bin	-inf	0
bin	0	0
bin	1	0
scalar Sample.host[0].wlan[0].queue incomingPackets:count 6
attr recordingmode count
attr source packetPushStarted
attr title "incoming packets, count"
attr unit pk
scalar Sample.host[0].wlan[0].queue incomingPacketLengths:sum 288
attr interpolationmode none
attr recordingmode sum
attr source packetLength(packetPushStarted)
attr title "incoming packet lengths, sum"
attr unit b
statistic Sample.host[0].wlan[0].queue incomingPacketLengths:histogram
field count 6
field mean 48
field stddev 0
field min 48
field max 48
field sum 288
field sqrsum 13824
attr interpolationmode none
attr recordingmode histogram
attr source packetLength(packetPushStarted)
attr title "incoming packet lengths"
attr unit b
bin	-inf	0
bin	47	0
bin	48	6
bin	49	0
scalar Sample.host[0].wlan[0].queue droppedPacketsQueueOverflow:count 0
attr interpolationmode none
attr recordingmode count
attr source packetDropReasonIsQueueOverflow(packetDropped)
attr title "dropped packets: queue overflow, count"
attr unit pk
scalar Sample.host[0].wlan[0].queue droppedPacketLengthsQueueOverflow:sum 0
attr interpolationmode none
attr recordingmode sum
attr source packetLength(packetDropReasonIsQueueOverflow(packetDropped))
attr title "dropped packet lengths: queue overflow, sum"
attr unit b
par Sample.host[0].wlan[0].mac typename "\"inet.linklayer.acking.AckingMac\""
par Sample.host[0].wlan[0].mac interfaceTableModule "\"Sample.host[0].interfaceTable\""
par Sample.host[0].wlan[0].mac address "\"auto\""
attr mutable ""
par Sample.host[0].wlan[0].mac bitrate 2e+06bps
attr unit bps
par Sample.host[0].wlan[0].mac mtu 4470B
attr unit B
par Sample.host[0].wlan[0].mac headerLength 23B
attr unit B
par Sample.host[0].wlan[0].mac promiscuous false
par Sample.host[0].wlan[0].mac fullDuplex true
par Sample.host[0].wlan[0].mac useAck true
par Sample.host[0].wlan[0].mac ackTimeout 0.1s
attr unit s
scalar Sample.host[0].wlan[0].mac rcvdPkFromLl:count 100
attr interpolationmode none
attr recordingmode count
attr source packetReceivedFromLower
attr title "packets received from lower layer, count"
scalar Sample.host[0].wlan[0].mac rcvdPkFromLl:sum(packetBytes) 2900
attr interpolationmode none
attr recordingmode sum(packetBytes)
attr source packetReceivedFromLower
attr title "packets received from lower layer, sum(packetBytes)"
scalar Sample.host[0].wlan[0].mac sentDownPk:count 6
attr interpolationmode none
attr recordingmode count
attr source packetSentToLower
attr title "packets sent to lower layer, count"
scalar Sample.host[0].wlan[0].mac sentDownPk:sum(packetBytes) 174
attr interpolationmode none
attr recordingmode sum(packetBytes)
attr source packetSentToLower
attr title "packets sent to lower layer, sum(packetBytes)"
scalar Sample.host[0].wlan[0].mac rcvdPkFromHl:count 6
attr interpolationmode none
attr recordingmode count
attr source packetReceivedFromUpper
attr title "packets received from higher layer, count"
scalar Sample.host[0].wlan[0].mac rcvdPkFromHl:sum(packetBytes) 36
attr interpolationmode none
attr recordingmode sum(packetBytes)
attr source packetReceivedFromUpper
attr title "packets received from higher layer, sum(packetBytes)"
scalar Sample.host[0].wlan[0].mac passedUpPk:count 100
attr interpolationmode none
attr recordingmode count
attr source packetSentToUpper
attr title "packets passed to higher layer, count"
scalar Sample.host[0].wlan[0].mac passedUpPk:sum(packetBytes) 600
attr interpolationmode none
attr recordingmode sum(packetBytes)
attr source packetSentToUpper
attr title "packets passed to higher layer, sum(packetBytes)"
scalar Sample.host[0].wlan[0].mac packetDropIncorrectlyReceived:count 0
attr interpolationmode none
attr recordingmode count
attr source packetDropReasonIsIncorrectlyReceived(packetDropped)
attr title "packet drop: incorrectly received, count"
scalar Sample.host[0].wlan[0].mac packetDropIncorrectlyReceived:sum(packetBytes) 0
attr interpolationmode none
attr recordingmode sum(packetBytes)
attr source packetDropReasonIsIncorrectlyReceived(packetDropped)
attr title "packet drop: incorrectly received, sum(packetBytes)"
scalar Sample.host[0].wlan[0].mac packetDropInterfaceDown:count 0
attr interpolationmode none
attr recordingmode count
attr source packetDropReasonIsInterfaceDown(packetDropped)
attr title "packet drop: interface down, count"
scalar Sample.host[0].wlan[0].mac packetDropInterfaceDown:sum(packetBytes) 0
attr interpolationmode none
attr recordingmode sum(packetBytes)
attr source packetDropReasonIsInterfaceDown(packetDropped)
attr title "packet drop: interface down, sum(packetBytes)"
scalar Sample.host[0].wlan[0].mac packetDropNotAddressedToUs:count 0
attr interpolationmode none
attr recordingmode count
attr source packetDropReasonIsNotAddressedToUs(packetDropped)
attr title "packet drop: not addressed to us, count"
scalar Sample.host[0].wlan[0].mac packetDropNotAddressedToUs:sum(packetBytes) 0
attr interpolationmode none
attr recordingmode sum(packetBytes)
attr source packetDropReasonIsNotAddressedToUs(packetDropped)
attr title "packet drop: not addressed to us, sum(packetBytes)"
scalar Sample.host[0].wlan[0].mac linkBroken:count 0
attr interpolationmode none
attr recordingmode count
attr source linkBroken
attr title "link break, count"
par Sample.host[0].wlan[0].radio.antenna typename "\"inet.physicallayer.wireless.common.antenna.IsotropicAntenna\""
par Sample.host[0].wlan[0].radio.antenna mobilityModule "\"^.^.^.mobility\""
par Sample.host[0].wlan[0].radio.antenna numAntennas 1
par Sample.host[0].wlan[0].radio.transmitter typename "\"inet.physicallayer.wireless.unitdisk.UnitDiskTransmitter\""
par Sample.host[0].wlan[0].radio.transmitter preambleDuration 0s
attr unit s
par Sample.host[0].wlan[0].radio.transmitter headerLength 96b
attr unit b
par Sample.host[0].wlan[0].radio.transmitter bitrate 2e+06bps
attr unit bps
par Sample.host[0].wlan[0].radio.transmitter communicationRange 220m
attr unit m
par Sample.host[0].wlan[0].radio.transmitter interferenceRange 0m
attr unit m
par Sample.host[0].wlan[0].radio.transmitter detectionRange 0m
attr unit m
par Sample.host[0].wlan[0].radio.receiver typename "\"inet.physicallayer.wireless.unitdisk.UnitDiskReceiver\""
par Sample.host[0].wlan[0].radio.receiver ignoreInterference true
par Sample.host[0].wlan[0].radio typename "\"inet.physicallayer.wireless.unitdisk.UnitDiskRadio\""
par Sample.host[0].wlan[0].radio radioMediumModule "\"radioMedium\""
par Sample.host[0].wlan[0].radio energySourceModule "\"\""
par Sample.host[0].wlan[0].radio initialRadioMode "\"off\""
attr enum off,sleep,receiver,transmitter,transceiver
par Sample.host[0].wlan[0].radio switchingTimes "\"ms 0 0 0 0 0 0 0 0 0 0 0 0 0 0 0 0 0 0 0 0 0 0 0 0 0\""
par Sample.host[0].wlan[0].radio sendRawBytes false
par Sample.host[0].wlan[0].radio separateTransmissionParts false
par Sample.host[0].wlan[0].radio separateReceptionParts false
par Sample.host[0].wlan[0].radio displayCommunicationRange false
par Sample.host[0].wlan[0].radio displayInterferenceRange false
statistic Sample.host[0].wlan[0].radio minSnir:histogram
field count 0
field mean nan
field stddev nan
field min nan
field max nan
field sum 0
field sqrsum 0
attr recordingmode histogram
attr source minimumSnir(packetSentToUpper)
attr title "Min SNIR"
bin	-inf	0
bin	0	0
bin	1	0
statistic Sample.host[0].wlan[0].radio packetErrorRate:histogram
field count 100
field mean 0.91
field stddev 0.28762349126466
field min 0
field max 1
field sum 91
field sqrsum 91
attr recordingmode histogram
attr source packetErrorRate(packetSentToUpper)
attr title "Packet error rate"
bin	-inf	0
bin	0	9
bin	1	91
bin	2	0
statistic Sample.host[0].wlan[0].radio bitErrorRate:histogram
field count 100
field mean 0.91
field stddev 0.28762349126466
field min 0
field max 1
field sum 91
field sqrsum 91
attr recordingmode histogram
attr source bitErrorRate(packetSentToUpper)
attr title "Bit error rate"
bin	-inf	0
bin	0	9
bin	1	91
bin	2	0
statistic Sample.host[0].wlan[0].radio symbolErrorRate:histogram
field count 100
field mean 0.91
field stddev 0.28762349126466
field min 0
field max 1
field sum 91
field sqrsum 91
attr recordingmode histogram
attr source symbolErrorRate(packetSentToUpper)
attr title "Symbol error rate"
bin	-inf	0
bin	0	9
bin	1	91
bin	2	0
scalar Sample.host[0].wlan[0].radio transmissionState:count 13
attr interpolationmode sample-hold
attr recordingmode count
attr source transmissionStateChanged
attr title "Radio transmission state, count"
scalar Sample.host[0].wlan[0].radio receptionState:count 280
attr interpolationmode sample-hold
attr recordingmode count
attr source receptionStateChanged
attr title "Radio reception state, count"
scalar Sample.host[0].wlan[0].radio radioMode:count 3
attr interpolationmode sample-hold
attr recordingmode count
attr source radioModeChanged
attr title "Radio mode, count"
par Sample.host[0].wlan[0] typename "\"inet.linklayer.acking.AckingWirelessInterface\""
par Sample.host[0].wlan[0] displayStringTextFormat "\"%a (%i)\\n%m\""
par Sample.host[0].wlan[0] recordPcap false
par Sample.host[0].wlan[0] numPcapRecorders 0
par Sample.host[0].wlan[0] interfaceTableModule "\"Sample.host[0].interfaceTable\""
par Sample.host[0].wlan[0] energySourceModule "\"\""
par Sample.host[0].wlan[0] bitrate 2e+06bps
attr unit bps
scalar Sample.host[0].wlan[0] packetDropInterfaceDown:count 0
attr interpolationmode none
attr recordingmode count
attr source packetDropReasonIsInterfaceDown(packetDropped)
attr title "packet drops: interface down, count"
scalar Sample.host[0].wlan[0] packetDropInterfaceDown:sum(packetBytes) 0
attr interpolationmode none
attr recordingmode sum(packetBytes)
attr source packetDropReasonIsInterfaceDown(packetDropped)
attr title "packet drops: interface down, sum(packetBytes)"
scalar Sample.host[0].wlan[0] packetDropNoCarrier:count 0
attr interpolationmode none
attr recordingmode count
attr source packetDropReasonIsNoCarrier(packetDropped)
attr title "packet drops: no carrier, count"
scalar Sample.host[0].wlan[0] packetDropNoCarrier:sum(packetBytes) 0
attr interpolationmode none
attr recordingmode sum(packetBytes)
attr source packetDropReasonIsNoCarrier(packetDropped)
attr title "packet drops: no carrier, sum(packetBytes)"
par Sample.host[0].generic.transportIn.channel typename "\"ned.IdealChannel\""
par Sample.host[0].generic.np.transportOut.channel typename "\"ned.IdealChannel\""
par Sample.host[0].generic.np typename "\"fadip.FadipNetworkProtocol\""
par Sample.host[0].generic.np hcMaxSubscribe 4
par Sample.host[0].generic.np hcMaxPublish 4
par Sample.host[0].generic.np wlanInterfaceModule "\"^.^.wlan[0]\""
par Sample.host[0].generic.np interfaceTableModule "\"Sample.host[0].generic.np.^.^.interfaceTable\""
par Sample.host[0].generic typename "\"fadip.FadipNetworkLayer\""
par Sample.host[0].nl typename "\"inet.common.MessageDispatcher\""
par Sample.host[0].nl displayStringTextFormat "\"processed %p pk (%l)\""
par Sample.host[0].nl forwardServiceRegistration true
par Sample.host[0].nl forwardProtocolRegistration true
par Sample.host[0].tn typename "\"inet.common.MessageDispatcher\""
par Sample.host[0].tn displayStringTextFormat "\"processed %p pk (%l)\""
par Sample.host[0].tn forwardServiceRegistration true
par Sample.host[0].tn forwardProtocolRegistration true
par Sample.host[0].app[0] typename "\"fadip.apps.FadipSink\""
par Sample.host[0].app[0] topic "\"Test\""
par Sample.host[0].at typename "\"inet.common.MessageDispatcher\""
par Sample.host[0].at displayStringTextFormat "\"processed %p pk (%l)\""
par Sample.host[0].at forwardServiceRegistration true
par Sample.host[0].at forwardProtocolRegistration true
par Sample.host[0] typename "\"fadip.FadipDevice\""
par Sample.host[0] hasStatus false
par Sample.host[0] osgModel "\"\""
par Sample.host[0] osgModelColor "\"\""
par Sample.host[0] canvasImage "\"\""
par Sample.host[0] canvasImageColor "\"\""
par Sample.host[0] recordPcap false
par Sample.host[0] numPcapRecorders 0
par Sample.host[0] numLoInterfaces 1
par Sample.host[0] numWlanInterfaces 1
par Sample.host[0] numEthInterfaces 0
par Sample.host[0] numPppInterfaces 0
par Sample.host[0] numTunInterfaces 0
par Sample.host[0] numVirtInterfaces 0
par Sample.host[0] fcsMode "\"declared\""
attr enum declared,computed
par Sample.host[0] hasIpv4 false
par Sample.host[0] hasIpv6 false
par Sample.host[0] hasGn true
par Sample.host[0] forwarding true
par Sample.host[0] multicastForwarding false
par Sample.host[0] hasUdp false
par Sample.host[0] hasTcp false
par Sample.host[0] hasSctp false
par Sample.host[0] numApps 1
par Sample.host[1].radioIn[0].channel typename "\"ned.IdealChannel\""
par Sample.host[1].mobility typename "\"inet.mobility.single.RandomWaypointMobility\""
par Sample.host[1].mobility subjectModule "\"^\""
par Sample.host[1].mobility coordinateSystemModule "\"\""
par Sample.host[1].mobility displayStringTextFormat "\"p: %p\\nv: %v\""
attr mutable ""
par Sample.host[1].mobility updateDisplayString true
par Sample.host[1].mobility constraintAreaMinX 0m
attr unit m
par Sample.host[1].mobility constraintAreaMinY 0m
attr unit m
par Sample.host[1].mobility constraintAreaMinZ 0m
attr unit m
par Sample.host[1].mobility constraintAreaMaxX 1500m
attr unit m
par Sample.host[1].mobility constraintAreaMaxY 1000m
attr unit m
par Sample.host[1].mobility constraintAreaMaxZ 0m
attr unit m
par Sample.host[1].mobility updateInterval 0.1s
attr unit s
par Sample.host[1].mobility faceForward true
par Sample.host[1].mobility initialX 1259.92m
attr unit m
par Sample.host[1].mobility initialY 290.905m
attr unit m
par Sample.host[1].mobility initialZ 0m
attr unit m
par Sample.host[1].mobility initFromDisplayString false
par Sample.host[1].mobility speed 1mps
attr unit mps
par Sample.host[1].mobility waitTime 0s
attr unit s
par Sample.host[1].interfaceTable typename "\"inet.networklayer.common.InterfaceTable\""
par Sample.host[1].interfaceTable displayAddresses false
par Sample.host[1].cb typename "\"inet.common.MessageDispatcher\""
par Sample.host[1].cb displayStringTextFormat "\"processed %p pk (%l)\""
par Sample.host[1].cb forwardServiceRegistration true
par Sample.host[1].cb forwardProtocolRegistration true
par Sample.host[1].bl typename "\"inet.common.MessageDispatcher\""
par Sample.host[1].bl displayStringTextFormat "\"processed %p pk (%l)\""
par Sample.host[1].bl forwardServiceRegistration true
par Sample.host[1].bl forwardProtocolRegistration true
par Sample.host[1].li typename "\"inet.common.MessageDispatcher\""
par Sample.host[1].li displayStringTextFormat "\"processed %p pk (%l)\""
par Sample.host[1].li forwardServiceRegistration true
par Sample.host[1].li forwardProtocolRegistration true
par Sample.host[1].lo[0].upperLayerIn.channel typename "\"ned.IdealChannel\""
par Sample.host[1].lo[0].lo.upperLayerOut.channel typename "\"ned.IdealChannel\""
par Sample.host[1].lo[0].lo typename "\"inet.linklayer.loopback.Loopback\""
par Sample.host[1].lo[0].lo interfaceTableModule "\"Sample.host[1].interfaceTable\""
par Sample.host[1].lo[0].lo mtu 4470B
attr unit B
scalar Sample.host[1].lo[0].lo rcvdPkFromHl:count 0
attr interpolationmode none
attr recordingmode count
attr source packetReceivedFromUpper
attr title "packets received from higher layer, count"
scalar Sample.host[1].lo[0].lo rcvdPkFromHl:sum(packetBytes) 0
attr interpolationmode none
attr recordingmode sum(packetBytes)
attr source packetReceivedFromUpper
attr title "packets received from higher layer, sum(packetBytes)"
scalar Sample.host[1].lo[0].lo passedUpPk:count 0
attr interpolationmode none
attr recordingmode count
attr source packetSentToUpper
attr title "packets passed to higher layer, count"
scalar Sample.host[1].lo[0].lo passedUpPk:sum(packetBytes) 0
attr interpolationmode none
attr recordingmode sum(packetBytes)
attr source packetSentToUpper
attr title "packets passed to higher layer, sum(packetBytes)"
par Sample.host[1].lo[0] typename "\"inet.linklayer.loopback.LoopbackInterface\""
par Sample.host[1].lo[0] displayStringTextFormat "\"%a (%i)\\n%m\""
par Sample.host[1].lo[0] recordPcap false
par Sample.host[1].lo[0] numPcapRecorders 0
par Sample.host[1].lo[0] interfaceTableModule "\"Sample.host[1].interfaceTable\""
scalar Sample.host[1].lo[0] packetDropInterfaceDown:count 0
attr interpolationmode none
attr recordingmode count
attr source packetDropReasonIsInterfaceDown(packetDropped)
attr title "packet drops: interface down, count"
scalar Sample.host[1].lo[0] packetDropInterfaceDown:sum(packetBytes) 0
attr interpolationmode none
attr recordingmode sum(packetBytes)
attr source packetDropReasonIsInterfaceDown(packetDropped)
attr title "packet drops: interface down, sum(packetBytes)"
scalar Sample.host[1].lo[0] packetDropNoCarrier:count 0
attr interpolationmode none
attr recordingmode count
attr source packetDropReasonIsNoCarrier(packetDropped)
attr title "packet drops: no carrier, count"
scalar Sample.host[1].lo[0] packetDropNoCarrier:sum(packetBytes) 0
attr interpolationmode none
attr recordingmode sum(packetBytes)
attr source packetDropReasonIsNoCarrier(packetDropped)
attr title "packet drops: no carrier, sum(packetBytes)"
par Sample.host[1].wlan[0].upperLayerIn.channel typename "\"ned.IdealChannel\""
par Sample.host[1].wlan[0].radioIn.channel typename "\"ned.IdealChannel\""
par Sample.host[1].wlan[0].mac.upperLayerOut.channel typename "\"ned.IdealChannel\""
par Sample.host[1].wlan[0].queue typename "\"inet.queueing.queue.DropTailQueue\""
par Sample.host[1].wlan[0].queue displayStringTextFormat "\"contains %p pk (%l) pushed %u\\npulled %o removed %r dropped %d\""
par Sample.host[1].wlan[0].queue packetCapacity 100
par Sample.host[1].wlan[0].queue dataCapacity -1b
attr unit b
par Sample.host[1].wlan[0].queue dropperClass "\"inet::queueing::PacketAtCollectionEndDropper\""
par Sample.host[1].wlan[0].queue comparatorClass "\"\""
par Sample.host[1].wlan[0].queue bufferModule "\"\""
scalar Sample.host[1].wlan[0].queue queueLength:last 0
attr autoWarmupFilter false
attr interpolationmode sample-hold
attr recordingmode last
attr source "warmup(atomic(constant0(packetPushEnded) + count(packetPushStarted) - count(packetPulled) - count(packetRemoved) - count(packetDropped)))"
attr title "queue length, last"
attr unit pk
scalar Sample.host[1].wlan[0].queue queueLength:max 0
attr autoWarmupFilter false
attr interpolationmode sample-hold
attr recordingmode max
attr source "warmup(atomic(constant0(packetPushEnded) + count(packetPushStarted) - count(packetPulled) - count(packetRemoved) - count(packetDropped)))"
attr title "queue length, max"
attr unit pk
scalar Sample.host[1].wlan[0].queue queueLength:timeavg 0
attr autoWarmupFilter false
attr interpolationmode sample-hold
attr recordingmode timeavg
attr source "warmup(atomic(constant0(packetPushEnded) + count(packetPushStarted) - count(packetPulled) - count(packetRemoved) - count(packetDropped)))"
attr title "queue length, timeavg"
attr unit pk
scalar Sample.host[1].wlan[0].queue queueBitLength:last 0
attr autoWarmupFilter false
attr interpolationmode sample-hold
attr recordingmode last
attr source "warmup(atomic(constant0(packetPushEnded) + sum(packetLength(packetPushStarted)) - sum(packetLength(packetPulled)) - sum(packetLength(packetRemoved)) - sum(packetLength(packetDropped))))"
attr title "queue bit length, last"
attr unit b
scalar Sample.host[1].wlan[0].queue queueBitLength:max 0
attr autoWarmupFilter false
attr interpolationmode sample-hold
attr recordingmode max
attr source "warmup(atomic(constant0(packetPushEnded) + sum(packetLength(packetPushStarted)) - sum(packetLength(packetPulled)) - sum(packetLength(packetRemoved)) - sum(packetLength(packetDropped))))"
attr title "queue bit length, max"
attr unit b
scalar Sample.host[1].wlan[0].queue queueBitLength:timeavg 0
attr autoWarmupFilter false
attr interpolationmode sample-hold
attr recordingmode timeavg
attr source "warmup(atomic(constant0(packetPushEnded) + sum(packetLength(packetPushStarted)) - sum(packetLength(packetPulled)) - sum(packetLength(packetRemoved)) - sum(packetLength(packetDropped))))"
attr title "queue bit length, timeavg"
attr unit b
statistic Sample.host[1].wlan[0].queue queueingTime:histogram
field count 38
field mean 0
field stddev 0
field min 0
field max 0
field sum 0
field sqrsum 0
attr interpolationmode none
attr recordingmode histogram
attr source queueingTime(packetPulled)
attr title "queueing times"
attr unit s
bin	-inf	0
bin	-0.5	0
bin	-0.48	0
bin	-0.46	0
bin	-0.44	0
bin	-0.42	0
bin	-0.4	0
bin	-0.38	0
bin	-0.36	0
bin	-0.34	0
bin	-0.32	0
bin	-0.3	0
bin	-0.28	0
bin	-0.26	0
bin	-0.24	0
bin	-0.22	0
bin	-0.2	0
bin	-0.18	0
bin	-0.16	0
bin	-0.14	0
bin	-0.12	0
bin	-0.1	0
bin	-0.08	0
bin	-0.06	0
bin	-0.04	0
bin	-0.02	0
bin	0	38
bin	0.02	0
bin	0.04	0
bin	0.06	0
bin	0.08	0
bin	0.1	0
bin	0.12	0
bin	0.14	0
bin	0.16	0
bin	0.18	0
bin	0.2	0
bin	0.22	0
bin	0.24	0
bin	0.26	0
bin	0.28	0
bin	0.3	0
bin	0.32	0
bin	0.34	0
bin	0.36	0
bin	0.38	0
bin	0.4	0
bin	0.42	0
bin	0.44	0
bin	0.46	0
bin	0.48	0
bin	0.5	0
scalar Sample.host[1].wlan[0].queue outgoingPackets:count 38
attr recordingmode count
attr source packetPulled
attr title "outgoing packets, count"
attr unit pk
scalar Sample.host[1].wlan[0].queue outgoingPacketLengths:sum 1824
attr interpolationmode none
attr recordingmode sum
attr source packetLength(packetPulled)
attr title "outgoing packet lengths, sum"
attr unit b
[...]
par Sample.host[149].lo[0].lo interfaceTableModule "\"Sample.host[149].interfaceTable\""
par Sample.host[149].lo[0].lo mtu 4470B
attr unit B
scalar Sample.host[149].lo[0].lo rcvdPkFromHl:count 0
attr interpolationmode none
attr recordingmode count
attr source packetReceivedFromUpper
attr title "packets received from higher layer, count"
scalar Sample.host[149].lo[0].lo rcvdPkFromHl:sum(packetBytes) 0
attr interpolationmode none
attr recordingmode sum(packetBytes)
attr source packetReceivedFromUpper
attr title "packets received from higher layer, sum(packetBytes)"
scalar Sample.host[149].lo[0].lo passedUpPk:count 0
attr interpolationmode none
attr recordingmode count
attr source packetSentToUpper
attr title "packets passed to higher layer, count"
scalar Sample.host[149].lo[0].lo passedUpPk:sum(packetBytes) 0
attr interpolationmode none
attr recordingmode sum(packetBytes)
attr source packetSentToUpper
attr title "packets passed to higher layer, sum(packetBytes)"
par Sample.host[149].lo[0] typename "\"inet.linklayer.loopback.LoopbackInterface\""
par Sample.host[149].lo[0] displayStringTextFormat "\"%a (%i)\\n%m\""
par Sample.host[149].lo[0] recordPcap false
par Sample.host[149].lo[0] numPcapRecorders 0
par Sample.host[149].lo[0] interfaceTableModule "\"Sample.host[149].interfaceTable\""
scalar Sample.host[149].lo[0] packetDropInterfaceDown:count 0
attr interpolationmode none
attr recordingmode count
attr source packetDropReasonIsInterfaceDown(packetDropped)
attr title "packet drops: interface down, count"
scalar Sample.host[149].lo[0] packetDropInterfaceDown:sum(packetBytes) 0
attr interpolationmode none
attr recordingmode sum(packetBytes)
attr source packetDropReasonIsInterfaceDown(packetDropped)
attr title "packet drops: interface down, sum(packetBytes)"
scalar Sample.host[149].lo[0] packetDropNoCarrier:count 0
attr interpolationmode none
attr recordingmode count
attr source packetDropReasonIsNoCarrier(packetDropped)
attr title "packet drops: no carrier, count"
scalar Sample.host[149].lo[0] packetDropNoCarrier:sum(packetBytes) 0
attr interpolationmode none
attr recordingmode sum(packetBytes)
attr source packetDropReasonIsNoCarrier(packetDropped)
attr title "packet drops: no carrier, sum(packetBytes)"
par Sample.host[149].wlan[0].upperLayerIn.channel typename "\"ned.IdealChannel\""
par Sample.host[149].wlan[0].radioIn.channel typename "\"ned.IdealChannel\""
par Sample.host[149].wlan[0].mac.upperLayerOut.channel typename "\"ned.IdealChannel\""
par Sample.host[149].wlan[0].queue typename "\"inet.queueing.queue.DropTailQueue\""
par Sample.host[149].wlan[0].queue displayStringTextFormat "\"contains %p pk (%l) pushed %u\\npulled %o removed %r dropped %d\""
par Sample.host[149].wlan[0].queue packetCapacity 100
par Sample.host[149].wlan[0].queue dataCapacity -1b
attr unit b
par Sample.host[149].wlan[0].queue dropperClass "\"inet::queueing::PacketAtCollectionEndDropper\""
par Sample.host[149].wlan[0].queue comparatorClass "\"\""
par Sample.host[149].wlan[0].queue bufferModule "\"\""
scalar Sample.host[149].wlan[0].queue queueLength:last 0
attr autoWarmupFilter false
attr interpolationmode sample-hold
attr recordingmode last
attr source "warmup(atomic(constant0(packetPushEnded) + count(packetPushStarted) - count(packetPulled) - count(packetRemoved) - count(packetDropped)))"
attr title "queue length, last"
attr unit pk
scalar Sample.host[149].wlan[0].queue queueLength:max 0
attr autoWarmupFilter false
attr interpolationmode sample-hold
attr recordingmode max
attr source "warmup(atomic(constant0(packetPushEnded) + count(packetPushStarted) - count(packetPulled) - count(packetRemoved) - count(packetDropped)))"
attr title "queue length, max"
attr unit pk
scalar Sample.host[149].wlan[0].queue queueLength:timeavg 0
attr autoWarmupFilter false
attr interpolationmode sample-hold
attr recordingmode timeavg
attr source "warmup(atomic(constant0(packetPushEnded) + count(packetPushStarted) - count(packetPulled) - count(packetRemoved) - count(packetDropped)))"
attr title "queue length, timeavg"
attr unit pk
scalar Sample.host[149].wlan[0].queue queueBitLength:last 0
attr autoWarmupFilter false
attr interpolationmode sample-hold
attr recordingmode last
attr source "warmup(atomic(constant0(packetPushEnded) + sum(packetLength(packetPushStarted)) - sum(packetLength(packetPulled)) - sum(packetLength(packetRemoved)) - sum(packetLength(packetDropped))))"
attr title "queue bit length, last"
attr unit b
scalar Sample.host[149].wlan[0].queue queueBitLength:max 0
attr autoWarmupFilter false
attr interpolationmode sample-hold
attr recordingmode max
attr source "warmup(atomic(constant0(packetPushEnded) + sum(packetLength(packetPushStarted)) - sum(packetLength(packetPulled)) - sum(packetLength(packetRemoved)) - sum(packetLength(packetDropped))))"
attr title "queue bit length, max"
attr unit b
scalar Sample.host[149].wlan[0].queue queueBitLength:timeavg 0
attr autoWarmupFilter false
attr interpolationmode sample-hold
attr recordingmode timeavg
attr source "warmup(atomic(constant0(packetPushEnded) + sum(packetLength(packetPushStarted)) - sum(packetLength(packetPulled)) - sum(packetLength(packetRemoved)) - sum(packetLength(packetDropped))))"
attr title "queue bit length, timeavg"
attr unit b
statistic Sample.host[149].wlan[0].queue queueingTime:histogram
field count 9
field mean 0
field stddev 0
field min 0
field max 0
field sum 0
field sqrsum 0
attr interpolationmode none
attr recordingmode histogram
attr source queueingTime(packetPulled)
attr title "queueing times"
attr unit s
bin	-inf	0
bin	-0.5	0
bin	-0.48	0
bin	-0.46	0
bin	-0.44	0
bin	-0.42	0
bin	-0.4	0
bin	-0.38	0
bin	-0.36	0
bin	-0.34	0
bin	-0.32	0
bin	-0.3	0
bin	-0.28	0
bin	-0.26	0
bin	-0.24	0
bin	-0.22	0
bin	-0.2	0
bin	-0.18	0
bin	-0.16	0
bin	-0.14	0
bin	-0.12	0
bin	-0.1	0
bin	-0.08	0
bin	-0.06	0
bin	-0.04	0
bin	-0.02	0
bin	0	9
bin	0.02	0
bin	0.04	0
bin	0.06	0
bin	0.08	0
bin	0.1	0
bin	0.12	0
bin	0.14	0
bin	0.16	0
bin	0.18	0
bin	0.2	0
bin	0.22	0
bin	0.24	0
bin	0.26	0
bin	0.28	0
bin	0.3	0
bin	0.32	0
bin	0.34	0
bin	0.36	0
bin	0.38	0
bin	0.4	0
bin	0.42	0
bin	0.44	0
bin	0.46	0
bin	0.48	0
bin	0.5	0
scalar Sample.host[149].wlan[0].queue outgoingPackets:count 9
attr recordingmode count
attr source packetPulled
attr title "outgoing packets, count"
attr unit pk
scalar Sample.host[149].wlan[0].queue outgoingPacketLengths:sum 432
attr interpolationmode none
attr recordingmode sum
attr source packetLength(packetPulled)
attr title "outgoing packet lengths, sum"
attr unit b
statistic Sample.host[149].wlan[0].queue outgoingPacketLengths:histogram
field count 9
field mean 48
field stddev 0
field min 48
field max 48
field sum 432
field sqrsum 20736
attr interpolationmode none
attr recordingmode histogram
attr source packetLength(packetPulled)
attr title "outgoing packet lengths"
attr unit b
bin	-inf	0
bin	47	0
bin	48	9
bin	49	0
statistic Sample.host[149].wlan[0].queue flowQueueingTime:histogram
field count 0
field mean nan
field stddev nan
field min nan
field max nan
field sum 0
field sqrsum 0
attr interpolationmode none
attr recordingmode histogram
attr source queueingTime(demuxFlow(packetPulled))
attr title "flow queueing times"
attr unit s
bin	-inf	0
bin	0	0
bin	1	0
scalar Sample.host[149].wlan[0].queue incomingPackets:count 9
attr recordingmode count
attr source packetPushStarted
attr title "incoming packets, count"
attr unit pk
scalar Sample.host[149].wlan[0].queue incomingPacketLengths:sum 432
attr interpolationmode none
attr recordingmode sum
attr source packetLength(packetPushStarted)
attr title "incoming packet lengths, sum"
attr unit b
statistic Sample.host[149].wlan[0].queue incomingPacketLengths:histogram
field count 9
field mean 48
field stddev 0
field min 48
field max 48
field sum 432
field sqrsum 20736
attr interpolationmode none
attr recordingmode histogram
attr source packetLength(packetPushStarted)
attr title "incoming packet lengths"
attr unit b
bin	-inf	0
bin	47	0
bin	48	9
bin	49	0
scalar Sample.host[149].wlan[0].queue droppedPacketsQueueOverflow:count 0
attr interpolationmode none
attr recordingmode count
attr source packetDropReasonIsQueueOverflow(packetDropped)
attr title "dropped packets: queue overflow, count"
attr unit pk
scalar Sample.host[149].wlan[0].queue droppedPacketLengthsQueueOverflow:sum 0
attr interpolationmode none
attr recordingmode sum
attr source packetLength(packetDropReasonIsQueueOverflow(packetDropped))
attr title "dropped packet lengths: queue overflow, sum"
attr unit b
par Sample.host[149].wlan[0].mac typename "\"inet.linklayer.acking.AckingMac\""
par Sample.host[149].wlan[0].mac interfaceTableModule "\"Sample.host[149].interfaceTable\""
par Sample.host[149].wlan[0].mac address "\"auto\""
attr mutable ""
par Sample.host[149].wlan[0].mac bitrate 2e+06bps
attr unit bps
par Sample.host[149].wlan[0].mac mtu 4470B
attr unit B
par Sample.host[149].wlan[0].mac headerLength 23B
attr unit B
par Sample.host[149].wlan[0].mac promiscuous false
par Sample.host[149].wlan[0].mac fullDuplex true
par Sample.host[149].wlan[0].mac useAck true
par Sample.host[149].wlan[0].mac ackTimeout 0.1s
attr unit s
scalar Sample.host[149].wlan[0].mac rcvdPkFromLl:count 32
attr interpolationmode none
attr recordingmode count
attr source packetReceivedFromLower
attr title "packets received from lower layer, count"
scalar Sample.host[149].wlan[0].mac rcvdPkFromLl:sum(packetBytes) 928
attr interpolationmode none
attr recordingmode sum(packetBytes)
attr source packetReceivedFromLower
attr title "packets received from lower layer, sum(packetBytes)"
scalar Sample.host[149].wlan[0].mac sentDownPk:count 9
attr interpolationmode none
attr recordingmode count
attr source packetSentToLower
attr title "packets sent to lower layer, count"
scalar Sample.host[149].wlan[0].mac sentDownPk:sum(packetBytes) 261
attr interpolationmode none
attr recordingmode sum(packetBytes)
attr source packetSentToLower
attr title "packets sent to lower layer, sum(packetBytes)"
scalar Sample.host[149].wlan[0].mac rcvdPkFromHl:count 9
attr interpolationmode none
attr recordingmode count
attr source packetReceivedFromUpper
attr title "packets received from higher layer, count"
scalar Sample.host[149].wlan[0].mac rcvdPkFromHl:sum(packetBytes) 54
attr interpolationmode none
attr recordingmode sum(packetBytes)
attr source packetReceivedFromUpper
attr title "packets received from higher layer, sum(packetBytes)"
scalar Sample.host[149].wlan[0].mac passedUpPk:count 32
attr interpolationmode none
attr recordingmode count
attr source packetSentToUpper
attr title "packets passed to higher layer, count"
scalar Sample.host[149].wlan[0].mac passedUpPk:sum(packetBytes) 192
attr interpolationmode none
attr recordingmode sum(packetBytes)
attr source packetSentToUpper
attr title "packets passed to higher layer, sum(packetBytes)"
scalar Sample.host[149].wlan[0].mac packetDropIncorrectlyReceived:count 0
attr interpolationmode none
attr recordingmode count
attr source packetDropReasonIsIncorrectlyReceived(packetDropped)
attr title "packet drop: incorrectly received, count"
scalar Sample.host[149].wlan[0].mac packetDropIncorrectlyReceived:sum(packetBytes) 0
attr interpolationmode none
attr recordingmode sum(packetBytes)
attr source packetDropReasonIsIncorrectlyReceived(packetDropped)
attr title "packet drop: incorrectly received, sum(packetBytes)"
scalar Sample.host[149].wlan[0].mac packetDropInterfaceDown:count 0
attr interpolationmode none
attr recordingmode count
attr source packetDropReasonIsInterfaceDown(packetDropped)
attr title "packet drop: interface down, count"
scalar Sample.host[149].wlan[0].mac packetDropInterfaceDown:sum(packetBytes) 0
attr interpolationmode none
attr recordingmode sum(packetBytes)
attr source packetDropReasonIsInterfaceDown(packetDropped)
attr title "packet drop: interface down, sum(packetBytes)"
scalar Sample.host[149].wlan[0].mac packetDropNotAddressedToUs:count 0
attr interpolationmode none
attr recordingmode count
attr source packetDropReasonIsNotAddressedToUs(packetDropped)
attr title "packet drop: not addressed to us, count"
scalar Sample.host[149].wlan[0].mac packetDropNotAddressedToUs:sum(packetBytes) 0
attr interpolationmode none
attr recordingmode sum(packetBytes)
attr source packetDropReasonIsNotAddressedToUs(packetDropped)
attr title "packet drop: not addressed to us, sum(packetBytes)"
scalar Sample.host[149].wlan[0].mac linkBroken:count 0
attr interpolationmode none
attr recordingmode count
attr source linkBroken
attr title "link break, count"
par Sample.host[149].wlan[0].radio.antenna typename "\"inet.physicallayer.wireless.common.antenna.IsotropicAntenna\""
par Sample.host[149].wlan[0].radio.antenna mobilityModule "\"^.^.^.mobility\""
par Sample.host[149].wlan[0].radio.antenna numAntennas 1
par Sample.host[149].wlan[0].radio.transmitter typename "\"inet.physicallayer.wireless.unitdisk.UnitDiskTransmitter\""
par Sample.host[149].wlan[0].radio.transmitter preambleDuration 0s
attr unit s
par Sample.host[149].wlan[0].radio.transmitter headerLength 96b
attr unit b
par Sample.host[149].wlan[0].radio.transmitter bitrate 2e+06bps
attr unit bps
par Sample.host[149].wlan[0].radio.transmitter communicationRange 220m
attr unit m
par Sample.host[149].wlan[0].radio.transmitter interferenceRange 0m
attr unit m
par Sample.host[149].wlan[0].radio.transmitter detectionRange 0m
attr unit m
par Sample.host[149].wlan[0].radio.receiver typename "\"inet.physicallayer.wireless.unitdisk.UnitDiskReceiver\""
par Sample.host[149].wlan[0].radio.receiver ignoreInterference true
par Sample.host[149].wlan[0].radio typename "\"inet.physicallayer.wireless.unitdisk.UnitDiskRadio\""
par Sample.host[149].wlan[0].radio radioMediumModule "\"radioMedium\""
par Sample.host[149].wlan[0].radio energySourceModule "\"\""
par Sample.host[149].wlan[0].radio initialRadioMode "\"off\""
attr enum off,sleep,receiver,transmitter,transceiver
par Sample.host[149].wlan[0].radio switchingTimes "\"ms 0 0 0 0 0 0 0 0 0 0 0 0 0 0 0 0 0 0 0 0 0 0 0 0 0\""
par Sample.host[149].wlan[0].radio sendRawBytes false
par Sample.host[149].wlan[0].radio separateTransmissionParts false
par Sample.host[149].wlan[0].radio separateReceptionParts false
par Sample.host[149].wlan[0].radio displayCommunicationRange false
par Sample.host[149].wlan[0].radio displayInterferenceRange false
statistic Sample.host[149].wlan[0].radio minSnir:histogram
field count 0
field mean nan
field stddev nan
field min nan
field max nan
field sum 0
field sqrsum 0
attr recordingmode histogram
attr source minimumSnir(packetSentToUpper)
attr title "Min SNIR"
bin	-inf	0
bin	0	0
bin	1	0
statistic Sample.host[149].wlan[0].radio packetErrorRate:histogram
field count 32
field mean 0.78125
field stddev 0.42001344064515
field min 0
field max 1
field sum 25
field sqrsum 25
attr recordingmode histogram
attr source packetErrorRate(packetSentToUpper)
attr title "Packet error rate"
bin	-inf	0
bin	0	7
bin	1	25
bin	2	0
statistic Sample.host[149].wlan[0].radio bitErrorRate:histogram
field count 32
field mean 0.78125
field stddev 0.42001344064515
field min 0
field max 1
field sum 25
field sqrsum 25
attr recordingmode histogram
attr source bitErrorRate(packetSentToUpper)
attr title "Bit error rate"
bin	-inf	0
bin	0	7
bin	1	25
bin	2	0
statistic Sample.host[149].wlan[0].radio symbolErrorRate:histogram
field count 32
field mean 0.78125
field stddev 0.42001344064515
field min 0
field max 1
field sum 25
field sqrsum 25
attr recordingmode histogram
attr source symbolErrorRate(packetSentToUpper)
attr title "Symbol error rate"
bin	-inf	0
bin	0	7
bin	1	25
bin	2	0
scalar Sample.host[149].wlan[0].radio transmissionState:count 19
attr interpolationmode sample-hold
attr recordingmode count
attr source transmissionStateChanged
attr title "Radio transmission state, count"
scalar Sample.host[149].wlan[0].radio receptionState:count 86
attr interpolationmode sample-hold
attr recordingmode count
attr source receptionStateChanged
attr title "Radio reception state, count"
scalar Sample.host[149].wlan[0].radio radioMode:count 3
attr interpolationmode sample-hold
attr recordingmode count
attr source radioModeChanged
attr title "Radio mode, count"
par Sample.host[149].wlan[0] typename "\"inet.linklayer.acking.AckingWirelessInterface\""
par Sample.host[149].wlan[0] displayStringTextFormat "\"%a (%i)\\n%m\""
par Sample.host[149].wlan[0] recordPcap false
par Sample.host[149].wlan[0] numPcapRecorders 0
par Sample.host[149].wlan[0] interfaceTableModule "\"Sample.host[149].interfaceTable\""
par Sample.host[149].wlan[0] energySourceModule "\"\""
par Sample.host[149].wlan[0] bitrate 2e+06bps
attr unit bps
scalar Sample.host[149].wlan[0] packetDropInterfaceDown:count 0
attr interpolationmode none
attr recordingmode count
attr source packetDropReasonIsInterfaceDown(packetDropped)
attr title "packet drops: interface down, count"
scalar Sample.host[149].wlan[0] packetDropInterfaceDown:sum(packetBytes) 0
attr interpolationmode none
attr recordingmode sum(packetBytes)
attr source packetDropReasonIsInterfaceDown(packetDropped)
attr title "packet drops: interface down, sum(packetBytes)"
scalar Sample.host[149].wlan[0] packetDropNoCarrier:count 0
attr interpolationmode none
attr recordingmode count
attr source packetDropReasonIsNoCarrier(packetDropped)
attr title "packet drops: no carrier, count"
scalar Sample.host[149].wlan[0] packetDropNoCarrier:sum(packetBytes) 0
attr interpolationmode none
attr recordingmode sum(packetBytes)
attr source packetDropReasonIsNoCarrier(packetDropped)
attr title "packet drops: no carrier, sum(packetBytes)"
par Sample.host[149].generic.transportIn.channel typename "\"ned.IdealChannel\""
par Sample.host[149].generic.np.transportOut.channel typename "\"ned.IdealChannel\""
par Sample.host[149].generic.np typename "\"fadip.FadipNetworkProtocol\""
par Sample.host[149].generic.np hcMaxSubscribe 4
par Sample.host[149].generic.np hcMaxPublish 4
par Sample.host[149].generic.np wlanInterfaceModule "\"^.^.wlan[0]\""
par Sample.host[149].generic.np interfaceTableModule "\"Sample.host[149].generic.np.^.^.interfaceTable\""
par Sample.host[149].generic typename "\"fadip.FadipNetworkLayer\""
par Sample.host[149].nl typename "\"inet.common.MessageDispatcher\""
par Sample.host[149].nl displayStringTextFormat "\"processed %p pk (%l)\""
par Sample.host[149].nl forwardServiceRegistration true
par Sample.host[149].nl forwardProtocolRegistration true
par Sample.host[149].tn typename "\"inet.common.MessageDispatcher\""
par Sample.host[149].tn displayStringTextFormat "\"processed %p pk (%l)\""
par Sample.host[149].tn forwardServiceRegistration true
par Sample.host[149].tn forwardProtocolRegistration true
par Sample.host[149].at typename "\"inet.common.MessageDispatcher\""
par Sample.host[149].at displayStringTextFormat "\"processed %p pk (%l)\""
par Sample.host[149].at forwardServiceRegistration true
par Sample.host[149].at forwardProtocolRegistration true
par Sample.host[149] typename "\"fadip.FadipDevice\""
par Sample.host[149] hasStatus false
par Sample.host[149] osgModel "\"\""
par Sample.host[149] osgModelColor "\"\""
par Sample.host[149] canvasImage "\"\""
par Sample.host[149] canvasImageColor "\"\""
par Sample.host[149] recordPcap false
par Sample.host[149] numPcapRecorders 0
par Sample.host[149] numLoInterfaces 1
par Sample.host[149] numWlanInterfaces 1
par Sample.host[149] numEthInterfaces 0
par Sample.host[149] numPppInterfaces 0
par Sample.host[149] numTunInterfaces 0
par Sample.host[149] numVirtInterfaces 0
par Sample.host[149] fcsMode "\"declared\""
attr enum declared,computed
par Sample.host[149] hasIpv4 false
par Sample.host[149] hasIpv6 false
par Sample.host[149] hasGn true
par Sample.host[149] forwarding true
par Sample.host[149] multicastForwarding false
par Sample.host[149] hasUdp false
par Sample.host[149] hasTcp false
par Sample.host[149] hasSctp false
par Sample.host[149] numApps 0
par Sample typename "\"fadip.simulations.Sample.Sample\""
par Sample numHosts 150
par Sample hcMaxSubscribe 4
par Sample hcMaxPublish 4

